/*---------------------------------------------------------------------------*\
| =========                 |                                                 |
| \\      /  F ield         | OpenFOAM: The Open Source CFD Toolbox           |
|  \\    /   O peration     | Version:  2406                                  |
|   \\  /    A nd           | Website:  www.openfoam.com                      |
|    \\/     M anipulation  |                                                 |
\*---------------------------------------------------------------------------*/
Build  : _9bfe8264-20241212 OPENFOAM=2406 patch=241212 version=2406
Arch   : "LSB;label=32;scalar=64"
Exec   : fireFoam -parallel
Date   : Feb 19 2025
Time   : 15:55:24
Host   : DESKTOP-DSF3BUF
PID    : 99668
I/O    : uncollated
Case   : /home/nathan/OpenFOAM/nathan-v2406/run/tutorials/combustion/fireFoam/LES/cenario1
nProcs : 4
Hosts  :
(
    (DESKTOP-DSF3BUF 4)
)
Pstream initialized with:
    floatTransfer      : false
    maxCommsSize       : 0
    nProcsSimpleSum    : 0
    nonBlockingExchange: 0 (tuning: 0)
    exchange algorithm : 0
    commsType          : nonBlocking
    polling iterations : 0
trapFpe: Floating point exception trapping enabled (FOAM_SIGFPE).
fileModificationChecking : Monitoring run-time modified files using timeStampMaster (fileModificationSkew 5, maxFileModificationPolls 20)
allowSystemOperations : Allowing user-supplied system call operations

// * * * * * * * * * * * * * * * * * * * * * * * * * * * * * * * * * * * * * //
Create time

Create mesh for time = 0


PIMPLE: Operating solver in PISO mode

Reading thermophysical properties

Selecting thermodynamics package 
{
    type            hePsiThermo;
    mixture         singleStepReactingMixture;
    transport       sutherland;
    thermo          janaf;
    energy          sensibleEnthalpy;
    equationOfState perfectGas;
    specie          specie;
}

Selecting chemistryReader foamChemistryReader
    elements not defined in "/home/nathan/OpenFOAM/nathan-v2406/run/tutorials/combustion/fireFoam/LES/cenario1/constant/reactions"
--> FOAM Warning : 
    From void Foam::multiComponentMixture<ThermoType>::correctMassFractions() [with ThermoType = Foam::sutherlandTransport<Foam::species::thermo<Foam::janafThermo<Foam::perfectGas<Foam::specie> >, Foam::sensibleEnthalpy> >]
    in file lnInclude/multiComponentMixture.C at line 78
    Sum of mass fractions is different from one for species 5(O2 H2O CH4 CO2 N2)
    Max of mass fraction sum differs from 1 by 9
Fuel heat of combustion :5.00312e+07
stoichiometric air-fuel ratio :17.0854
stoichiometric oxygen-fuel ratio :3.98918
Maximum products mass concentrations:
    H2O: 0.124183
    CO2: 0.151685
    N2: 0.724132
Creating component thermo properties:
    multi-component carrier - 5 species
    no liquid components
    no solid components
Creating field rho


Reading field U

Reading/calculating face flux field phi

No MRF models present

Creating turbulence model

Selecting turbulence model type LES
Selecting LES turbulence model kEqn
Selecting LES delta type cubeRootVol
kEqnCoeffs
{
    ck              0.07;
    Ck              0.094;
}

Creating combustion model

Selecting combustion model EDM
Combustion mode: explicit

Reading g

Reading hRef
Calculating field g.h


Reading pRef
GAMG:  Solving for ph_rgh, Initial residual = 1, Final residual = 0.0936929, No Iterations 4
Hydrostatic pressure variation 5.3388
GAMG:  Solving for ph_rgh, Initial residual = 0.00103869, Final residual = 5.90976e-05, No Iterations 4
Hydrostatic pressure variation 5.35821
GAMG:  Solving for ph_rgh, Initial residual = 5.65769e-05, Final residual = 4.21719e-06, No Iterations 6
Hydrostatic pressure variation 5.3595
GAMG:  Solving for ph_rgh, Initial residual = 4.25195e-06, Final residual = 8.5494e-07, No Iterations 5
Hydrostatic pressure variation 5.35958
GAMG:  Solving for ph_rgh, Initial residual = 8.56482e-07, Final residual = 8.56482e-07, No Iterations 0
Hydrostatic pressure variation 5.35958
Creating field dpdt

Creating field kinetic energy K


Constructing reacting cloud
Cloud source terms will be reset
Constructing particle injection models
Selecting injection model none

Constructing surface film model
Selecting surfaceFilmModel none
Creating pyrolysis model
Selecting pyrolysisModel none
Selecting radiationModel fvDOM
Selecting absorptionEmissionModel greyMeanAbsorptionEmission
Selecting scatterModel none
Selecting sootModel none
fvDOM : Allocated 16 rays with average orientation:
	I0 : dAve : 	(0.230038 0.55536 0.392699) : omega : 	0.785398 : d : 	(0.270598 0.653281 0.707107)
	I1 : dAve : 	(0.55536 0.230038 0.392699) : omega : 	0.785398 : d : 	(0.653281 0.270598 0.707107)
	I2 : dAve : 	(0.55536 -0.230038 0.392699) : omega : 	0.785398 : d : 	(0.653281 -0.270598 0.707107)
	I3 : dAve : 	(0.230038 -0.55536 0.392699) : omega : 	0.785398 : d : 	(0.270598 -0.653281 0.707107)
	I4 : dAve : 	(-0.230038 -0.55536 0.392699) : omega : 	0.785398 : d : 	(-0.270598 -0.653281 0.707107)
	I5 : dAve : 	(-0.55536 -0.230038 0.392699) : omega : 	0.785398 : d : 	(-0.653281 -0.270598 0.707107)
	I6 : dAve : 	(-0.55536 0.230038 0.392699) : omega : 	0.785398 : d : 	(-0.653281 0.270598 0.707107)
	I7 : dAve : 	(-0.230038 0.55536 0.392699) : omega : 	0.785398 : d : 	(-0.270598 0.653281 0.707107)
	I8 : dAve : 	(0.230038 0.55536 -0.392699) : omega : 	0.785398 : d : 	(0.270598 0.653281 -0.707107)
	I9 : dAve : 	(0.55536 0.230038 -0.392699) : omega : 	0.785398 : d : 	(0.653281 0.270598 -0.707107)
	I10 : dAve : 	(0.55536 -0.230038 -0.392699) : omega : 	0.785398 : d : 	(0.653281 -0.270598 -0.707107)
	I11 : dAve : 	(0.230038 -0.55536 -0.392699) : omega : 	0.785398 : d : 	(0.270598 -0.653281 -0.707107)
	I12 : dAve : 	(-0.230038 -0.55536 -0.392699) : omega : 	0.785398 : d : 	(-0.270598 -0.653281 -0.707107)
	I13 : dAve : 	(-0.55536 -0.230038 -0.392699) : omega : 	0.785398 : d : 	(-0.653281 -0.270598 -0.707107)
	I14 : dAve : 	(-0.55536 0.230038 -0.392699) : omega : 	0.785398 : d : 	(-0.653281 0.270598 -0.707107)
	I15 : dAve : 	(-0.230038 0.55536 -0.392699) : omega : 	0.785398 : d : 	(-0.270598 0.653281 -0.707107)
Total omega : 12.5664

No finite volume options present
Courant Number mean: 1.89178e-10 max: 0.000103753

Starting time loop

Courant Number mean: 1.89178e-10 max: 0.000103753
deltaT = 0.0138889
Time = 0.0138889

diagonal:  Solving for rho, Initial residual = 0, Final residual = 0, No Iterations 0
PIMPLE: iteration 1
DILUPBiCGStab:  Solving for Ux, Initial residual = 1, Final residual = 1.50902e-09, No Iterations 1
DILUPBiCGStab:  Solving for Uy, Initial residual = 1, Final residual = 6.14915e-11, No Iterations 1
DILUPBiCGStab:  Solving for Uz, Initial residual = 1, Final residual = 7.81685e-10, No Iterations 1
DILUPBiCGStab:  Solving for O2, Initial residual = 0.994966, Final residual = 9.28824e-09, No Iterations 1
DILUPBiCGStab:  Solving for H2O, Initial residual = 0, Final residual = 0, No Iterations 0
DILUPBiCGStab:  Solving for CH4, Initial residual = 1, Final residual = 9.32919e-09, No Iterations 1
DILUPBiCGStab:  Solving for CO2, Initial residual = 0, Final residual = 0, No Iterations 0
Radiation solver iter: 0
Selecting boundary radiation Model: lookup
Selecting boundary radiation Model: lookup
Selecting boundary radiation Model: lookup
Selecting boundary radiation Model: lookup
Selecting boundary radiation Model: lookup
Selecting boundary radiation Model: lookup
GAMG:  Solving for ILambda_0_0, Initial residual = 1, Final residual = 2.12883e-15, No Iterations 1
GAMG:  Solving for ILambda_1_0, Initial residual = 1, Final residual = 1.56861e-15, No Iterations 1
GAMG:  Solving for ILambda_2_0, Initial residual = 1, Final residual = 1.63825e-15, No Iterations 1
GAMG:  Solving for ILambda_3_0, Initial residual = 1, Final residual = 2.26814e-15, No Iterations 1
GAMG:  Solving for ILambda_4_0, Initial residual = 1, Final residual = 2.26416e-15, No Iterations 1
GAMG:  Solving for ILambda_5_0, Initial residual = 1, Final residual = 1.63795e-15, No Iterations 1
GAMG:  Solving for ILambda_6_0, Initial residual = 1, Final residual = 1.61971e-15, No Iterations 1
GAMG:  Solving for ILambda_7_0, Initial residual = 1, Final residual = 2.1741e-15, No Iterations 1
GAMG:  Solving for ILambda_8_0, Initial residual = 1, Final residual = 2.24294e-15, No Iterations 1
GAMG:  Solving for ILambda_9_0, Initial residual = 1, Final residual = 1.68213e-15, No Iterations 1
GAMG:  Solving for ILambda_10_0, Initial residual = 1, Final residual = 1.63407e-15, No Iterations 1
GAMG:  Solving for ILambda_11_0, Initial residual = 1, Final residual = 2.0736e-15, No Iterations 1
GAMG:  Solving for ILambda_12_0, Initial residual = 1, Final residual = 2.05003e-15, No Iterations 1
GAMG:  Solving for ILambda_13_0, Initial residual = 1, Final residual = 1.59362e-15, No Iterations 1
GAMG:  Solving for ILambda_14_0, Initial residual = 1, Final residual = 1.67747e-15, No Iterations 1
GAMG:  Solving for ILambda_15_0, Initial residual = 1, Final residual = 2.25224e-15, No Iterations 1
DILUPBiCGStab:  Solving for h, Initial residual = 0.990328, Final residual = 9.24355e-09, No Iterations 1
min/max(T) = 299.992, 300
GAMG:  Solving for p_rgh, Initial residual = 8.77091e-05, Final residual = 3.63189e-06, No Iterations 3
diagonal:  Solving for rho, Initial residual = 0, Final residual = 0, No Iterations 0
time step continuity errors : sum local = 5.79042e-09, global = 5.68451e-09, cumulative = 5.68451e-09
GAMG:  Solving for p_rgh, Initial residual = 5.90593e-05, Final residual = 5.89925e-07, No Iterations 3
diagonal:  Solving for rho, Initial residual = 0, Final residual = 0, No Iterations 0
time step continuity errors : sum local = 5.69541e-09, global = 5.67488e-09, cumulative = 1.13594e-08
DILUPBiCGStab:  Solving for k, Initial residual = 1, Final residual = 1.01968e-09, No Iterations 1
ExecutionTime = 3.31 s  ClockTime = 3 s

Courant Number mean: 2.01214e-08 max: 0.000338656
deltaT = 0.0196759
Time = 0.0335648

diagonal:  Solving for rho, Initial residual = 0, Final residual = 0, No Iterations 0
PIMPLE: iteration 1
DILUPBiCGStab:  Solving for Ux, Initial residual = 0.414594, Final residual = 1.52354e-10, No Iterations 1
DILUPBiCGStab:  Solving for Uy, Initial residual = 0.0988732, Final residual = 3.54334e-11, No Iterations 1
DILUPBiCGStab:  Solving for Uz, Initial residual = 0.414411, Final residual = 1.29913e-10, No Iterations 1
DILUPBiCGStab:  Solving for O2, Initial residual = 0.0906742, Final residual = 5.79048e-09, No Iterations 1
DILUPBiCGStab:  Solving for H2O, Initial residual = 1, Final residual = 6.54212e-08, No Iterations 1
DILUPBiCGStab:  Solving for CH4, Initial residual = 0.0843714, Final residual = 5.37671e-09, No Iterations 1
DILUPBiCGStab:  Solving for CO2, Initial residual = 1, Final residual = 6.54212e-08, No Iterations 1
DILUPBiCGStab:  Solving for h, Initial residual = 0.935616, Final residual = 3.15958e-11, No Iterations 1
min/max(T) = 300, 300.116
GAMG:  Solving for p_rgh, Initial residual = 0.000181731, Final residual = 1.07002e-05, No Iterations 4
diagonal:  Solving for rho, Initial residual = 0, Final residual = 0, No Iterations 0
time step continuity errors : sum local = 6.57949e-10, global = 1.12825e-10, cumulative = 1.14722e-08
GAMG:  Solving for p_rgh, Initial residual = 1.04943e-05, Final residual = 3.5604e-07, No Iterations 3
diagonal:  Solving for rho, Initial residual = 0, Final residual = 0, No Iterations 0
time step continuity errors : sum local = 2.22416e-11, global = 1.91286e-12, cumulative = 1.14741e-08
DILUPBiCGStab:  Solving for k, Initial residual = 0.945713, Final residual = 1.93491e-09, No Iterations 1
ExecutionTime = 4.64 s  ClockTime = 4 s

Courant Number mean: 4.85539e-07 max: 0.00377622
deltaT = 0.0270544
Time = 0.0606192

diagonal:  Solving for rho, Initial residual = 0, Final residual = 0, No Iterations 0
PIMPLE: iteration 1
DILUPBiCGStab:  Solving for Ux, Initial residual = 0.392663, Final residual = 2.87803e-10, No Iterations 1
DILUPBiCGStab:  Solving for Uy, Initial residual = 0.092059, Final residual = 6.35422e-11, No Iterations 1
DILUPBiCGStab:  Solving for Uz, Initial residual = 0.393661, Final residual = 2.34341e-10, No Iterations 1
DILUPBiCGStab:  Solving for O2, Initial residual = 0.0566087, Final residual = 2.686e-07, No Iterations 1
DILUPBiCGStab:  Solving for H2O, Initial residual = 0.175996, Final residual = 8.45344e-07, No Iterations 1
DILUPBiCGStab:  Solving for CH4, Initial residual = 0.0499941, Final residual = 2.36644e-07, No Iterations 1
DILUPBiCGStab:  Solving for CO2, Initial residual = 0.175996, Final residual = 8.45344e-07, No Iterations 1
DILUPBiCGStab:  Solving for h, Initial residual = 0.278222, Final residual = 2.77723e-10, No Iterations 1
min/max(T) = 300, 300.541
GAMG:  Solving for p_rgh, Initial residual = 0.000327837, Final residual = 1.56035e-05, No Iterations 4
diagonal:  Solving for rho, Initial residual = 0, Final residual = 0, No Iterations 0
time step continuity errors : sum local = 1.82129e-09, global = 5.04471e-10, cumulative = 1.19786e-08
GAMG:  Solving for p_rgh, Initial residual = 1.59234e-05, Final residual = 8.67607e-07, No Iterations 3
diagonal:  Solving for rho, Initial residual = 0, Final residual = 0, No Iterations 0
time step continuity errors : sum local = 1.0152e-10, global = 2.16436e-11, cumulative = 1.20002e-08
DILUPBiCGStab:  Solving for k, Initial residual = 0.698091, Final residual = 2.69934e-09, No Iterations 1
ExecutionTime = 6.05 s  ClockTime = 5 s

Courant Number mean: 1.31457e-06 max: 0.00584364
deltaT = 0.0378762
Time = 0.0984954

diagonal:  Solving for rho, Initial residual = 0, Final residual = 0, No Iterations 0
PIMPLE: iteration 1
DILUPBiCGStab:  Solving for Ux, Initial residual = 0.255033, Final residual = 5.50682e-10, No Iterations 1
DILUPBiCGStab:  Solving for Uy, Initial residual = 0.0575344, Final residual = 1.46269e-10, No Iterations 1
DILUPBiCGStab:  Solving for Uz, Initial residual = 0.276367, Final residual = 1.63716e-10, No Iterations 1
DILUPBiCGStab:  Solving for O2, Initial residual = 0.0470201, Final residual = 5.24258e-07, No Iterations 1
DILUPBiCGStab:  Solving for H2O, Initial residual = 0.11083, Final residual = 1.24194e-06, No Iterations 1
DILUPBiCGStab:  Solving for CH4, Initial residual = 0.0391449, Final residual = 4.35683e-07, No Iterations 1
DILUPBiCGStab:  Solving for CO2, Initial residual = 0.11083, Final residual = 1.24194e-06, No Iterations 1
DILUPBiCGStab:  Solving for h, Initial residual = 0.0916764, Final residual = 1.08012e-10, No Iterations 1
min/max(T) = 300, 301.602
GAMG:  Solving for p_rgh, Initial residual = 0.000149586, Final residual = 7.04522e-06, No Iterations 3
diagonal:  Solving for rho, Initial residual = 0, Final residual = 0, No Iterations 0
time step continuity errors : sum local = 1.6101e-09, global = -1.06793e-10, cumulative = 1.18935e-08
GAMG:  Solving for p_rgh, Initial residual = 7.21629e-06, Final residual = 9.66234e-07, No Iterations 2
diagonal:  Solving for rho, Initial residual = 0, Final residual = 0, No Iterations 0
time step continuity errors : sum local = 2.18355e-10, global = 1.89617e-11, cumulative = 1.19124e-08
DILUPBiCGStab:  Solving for k, Initial residual = 0.54417, Final residual = 4.12224e-09, No Iterations 1
ExecutionTime = 7.46 s  ClockTime = 7 s

Courant Number mean: 2.18967e-06 max: 0.00924556
deltaT = 0.0505015
Time = 0.148997

diagonal:  Solving for rho, Initial residual = 0, Final residual = 0, No Iterations 0
PIMPLE: iteration 1
DILUPBiCGStab:  Solving for Ux, Initial residual = 0.0859783, Final residual = 5.58837e-10, No Iterations 1
DILUPBiCGStab:  Solving for Uy, Initial residual = 0.0202218, Final residual = 9.7901e-11, No Iterations 1
DILUPBiCGStab:  Solving for Uz, Initial residual = 0.122841, Final residual = 3.62104e-10, No Iterations 1
DILUPBiCGStab:  Solving for O2, Initial residual = 0.0414858, Final residual = 9.82676e-07, No Iterations 1
DILUPBiCGStab:  Solving for H2O, Initial residual = 0.0833505, Final residual = 1.97995e-06, No Iterations 1
DILUPBiCGStab:  Solving for CH4, Initial residual = 0.0323808, Final residual = 7.65798e-07, No Iterations 1
DILUPBiCGStab:  Solving for CO2, Initial residual = 0.0833505, Final residual = 1.97995e-06, No Iterations 1
DILUPBiCGStab:  Solving for h, Initial residual = 0.080826, Final residual = 1.60254e-10, No Iterations 1
min/max(T) = 300, 303.845
GAMG:  Solving for p_rgh, Initial residual = 0.000150742, Final residual = 7.70735e-06, No Iterations 3
diagonal:  Solving for rho, Initial residual = 0, Final residual = 0, No Iterations 0
time step continuity errors : sum local = 3.09448e-09, global = -1.17975e-09, cumulative = 1.07327e-08
GAMG:  Solving for p_rgh, Initial residual = 7.97042e-06, Final residual = 7.41195e-07, No Iterations 3
diagonal:  Solving for rho, Initial residual = 0, Final residual = 0, No Iterations 0
time step continuity errors : sum local = 2.96276e-10, global = 1.56945e-11, cumulative = 1.07484e-08
DILUPBiCGStab:  Solving for k, Initial residual = 0.440982, Final residual = 5.93489e-09, No Iterations 1
ExecutionTime = 8.78 s  ClockTime = 11 s

Courant Number mean: 3.02319e-06 max: 0.0141286
deltaT = 0.0505015
Time = 0.199498

diagonal:  Solving for rho, Initial residual = 0, Final residual = 0, No Iterations 0
PIMPLE: iteration 1
DILUPBiCGStab:  Solving for Ux, Initial residual = 0.0454315, Final residual = 1.30682e-10, No Iterations 1
DILUPBiCGStab:  Solving for Uy, Initial residual = 0.00805871, Final residual = 6.02687e-07, No Iterations 1
DILUPBiCGStab:  Solving for Uz, Initial residual = 0.0409714, Final residual = 1.53714e-10, No Iterations 1
DILUPBiCGStab:  Solving for O2, Initial residual = 0.0296814, Final residual = 8.54963e-07, No Iterations 1
DILUPBiCGStab:  Solving for H2O, Initial residual = 0.0531305, Final residual = 1.5314e-06, No Iterations 1
DILUPBiCGStab:  Solving for CH4, Initial residual = 0.0217089, Final residual = 6.24977e-07, No Iterations 1
DILUPBiCGStab:  Solving for CO2, Initial residual = 0.0531305, Final residual = 1.5314e-06, No Iterations 1
DILUPBiCGStab:  Solving for h, Initial residual = 0.0543115, Final residual = 8.9863e-11, No Iterations 1
min/max(T) = 300, 307.144
GAMG:  Solving for p_rgh, Initial residual = 0.00012215, Final residual = 6.3405e-06, No Iterations 3
diagonal:  Solving for rho, Initial residual = 0, Final residual = 0, No Iterations 0
time step continuity errors : sum local = 2.53347e-09, global = 6.29959e-10, cumulative = 1.13783e-08
GAMG:  Solving for p_rgh, Initial residual = 6.62794e-06, Final residual = 5.31657e-07, No Iterations 2
diagonal:  Solving for rho, Initial residual = 0, Final residual = 0, No Iterations 0
time step continuity errors : sum local = 2.12901e-10, global = 2.11954e-11, cumulative = 1.13995e-08
DILUPBiCGStab:  Solving for k, Initial residual = 0.280074, Final residual = 3.76768e-09, No Iterations 1
ExecutionTime = 10.07 s  ClockTime = 12 s

Courant Number mean: 3.4655e-06 max: 0.0163196
deltaT = 0.0505015
Time = 0.25

diagonal:  Solving for rho, Initial residual = 0, Final residual = 0, No Iterations 0
PIMPLE: iteration 1
DILUPBiCGStab:  Solving for Ux, Initial residual = 0.0685473, Final residual = 2.01998e-10, No Iterations 1
DILUPBiCGStab:  Solving for Uy, Initial residual = 0.0117482, Final residual = 9.16664e-07, No Iterations 1
DILUPBiCGStab:  Solving for Uz, Initial residual = 0.0580971, Final residual = 1.82938e-10, No Iterations 1
DILUPBiCGStab:  Solving for O2, Initial residual = 0.0230974, Final residual = 8.24636e-07, No Iterations 1
DILUPBiCGStab:  Solving for H2O, Initial residual = 0.0372332, Final residual = 1.33027e-06, No Iterations 1
DILUPBiCGStab:  Solving for CH4, Initial residual = 0.0164229, Final residual = 5.85885e-07, No Iterations 1
DILUPBiCGStab:  Solving for CO2, Initial residual = 0.0372332, Final residual = 1.33027e-06, No Iterations 1
DILUPBiCGStab:  Solving for h, Initial residual = 0.0376535, Final residual = 6.51675e-11, No Iterations 1
min/max(T) = 300, 311.335
GAMG:  Solving for p_rgh, Initial residual = 0.000119637, Final residual = 5.48238e-06, No Iterations 3
diagonal:  Solving for rho, Initial residual = 0, Final residual = 0, No Iterations 0
time step continuity errors : sum local = 2.19679e-09, global = 3.82446e-10, cumulative = 1.1782e-08
GAMG:  Solving for p_rgh, Initial residual = 5.90414e-06, Final residual = 5.58013e-07, No Iterations 2
diagonal:  Solving for rho, Initial residual = 0, Final residual = 0, No Iterations 0
time step continuity errors : sum local = 2.23883e-10, global = -1.21554e-11, cumulative = 1.17698e-08
DILUPBiCGStab:  Solving for k, Initial residual = 0.203532, Final residual = 2.73695e-09, No Iterations 1
ExecutionTime = 11.44 s  ClockTime = 13 s

Courant Number mean: 4.02194e-06 max: 0.0180036
deltaT = 0.0833333
Time = 0.333333

diagonal:  Solving for rho, Initial residual = 0, Final residual = 0, No Iterations 0
PIMPLE: iteration 1
DILUPBiCGStab:  Solving for Ux, Initial residual = 0.106981, Final residual = 1.8485e-09, No Iterations 1
DILUPBiCGStab:  Solving for Uy, Initial residual = 0.0212103, Final residual = 3.47919e-10, No Iterations 1
DILUPBiCGStab:  Solving for Uz, Initial residual = 0.110863, Final residual = 1.18797e-09, No Iterations 1
DILUPBiCGStab:  Solving for O2, Initial residual = 0.0277997, Final residual = 2.99737e-06, No Iterations 1
DILUPBiCGStab:  Solving for H2O, Initial residual = 0.0378712, Final residual = 4.06512e-06, No Iterations 1
DILUPBiCGStab:  Solving for CH4, Initial residual = 0.0217192, Final residual = 2.35252e-06, No Iterations 1
DILUPBiCGStab:  Solving for CO2, Initial residual = 0.0378712, Final residual = 4.06512e-06, No Iterations 1
DILUPBiCGStab:  Solving for h, Initial residual = 0.038021, Final residual = 3.44477e-10, No Iterations 1
min/max(T) = 300, 317.699
GAMG:  Solving for p_rgh, Initial residual = 0.000139415, Final residual = 8.10151e-06, No Iterations 3
diagonal:  Solving for rho, Initial residual = 0, Final residual = 0, No Iterations 0
time step continuity errors : sum local = 8.83981e-09, global = -3.16266e-09, cumulative = 8.60714e-09
GAMG:  Solving for p_rgh, Initial residual = 9.67869e-06, Final residual = 8.35399e-07, No Iterations 2
diagonal:  Solving for rho, Initial residual = 0, Final residual = 0, No Iterations 0
time step continuity errors : sum local = 9.09226e-10, global = -1.71703e-10, cumulative = 8.43544e-09
DILUPBiCGStab:  Solving for k, Initial residual = 0.275128, Final residual = 1.00605e-08, No Iterations 1
ExecutionTime = 12.79 s  ClockTime = 14 s

Courant Number mean: 6.73046e-06 max: 0.0343746
deltaT = 0.0833333
Time = 0.416667

diagonal:  Solving for rho, Initial residual = 0, Final residual = 0, No Iterations 0
PIMPLE: iteration 1
DILUPBiCGStab:  Solving for Ux, Initial residual = 0.017341, Final residual = 2.61162e-10, No Iterations 1
DILUPBiCGStab:  Solving for Uy, Initial residual = 0.00454745, Final residual = 4.35503e-07, No Iterations 1
DILUPBiCGStab:  Solving for Uz, Initial residual = 0.0206282, Final residual = 2.84441e-10, No Iterations 1
DILUPBiCGStab:  Solving for O2, Initial residual = 0.0196147, Final residual = 1.53038e-06, No Iterations 1
DILUPBiCGStab:  Solving for H2O, Initial residual = 0.0243966, Final residual = 1.88551e-06, No Iterations 1
DILUPBiCGStab:  Solving for CH4, Initial residual = 0.0161472, Final residual = 1.26981e-06, No Iterations 1
DILUPBiCGStab:  Solving for CO2, Initial residual = 0.0243966, Final residual = 1.88551e-06, No Iterations 1
DILUPBiCGStab:  Solving for h, Initial residual = 0.0245123, Final residual = 1.38569e-10, No Iterations 1
min/max(T) = 300, 323.589
GAMG:  Solving for p_rgh, Initial residual = 0.000137803, Final residual = 7.76167e-06, No Iterations 2
diagonal:  Solving for rho, Initial residual = 0, Final residual = 0, No Iterations 0
time step continuity errors : sum local = 8.44516e-09, global = -4.14491e-09, cumulative = 4.29053e-09
GAMG:  Solving for p_rgh, Initial residual = 8.9901e-06, Final residual = 7.42371e-07, No Iterations 3
diagonal:  Solving for rho, Initial residual = 0, Final residual = 0, No Iterations 0
time step continuity errors : sum local = 8.07846e-10, global = -9.30713e-11, cumulative = 4.19746e-09
DILUPBiCGStab:  Solving for k, Initial residual = 0.200966, Final residual = 7.34298e-09, No Iterations 1
ExecutionTime = 14.1 s  ClockTime = 16 s

Courant Number mean: 6.69029e-06 max: 0.04155
deltaT = 0.0833333
Time = 0.5

diagonal:  Solving for rho, Initial residual = 0, Final residual = 0, No Iterations 0
PIMPLE: iteration 1
DILUPBiCGStab:  Solving for Ux, Initial residual = 0.0166187, Final residual = 1.37389e-10, No Iterations 1
DILUPBiCGStab:  Solving for Uy, Initial residual = 0.00387082, Final residual = 3.03586e-07, No Iterations 1
DILUPBiCGStab:  Solving for Uz, Initial residual = 0.0192088, Final residual = 2.13304e-10, No Iterations 1
DILUPBiCGStab:  Solving for O2, Initial residual = 0.0152763, Final residual = 8.93487e-07, No Iterations 1
DILUPBiCGStab:  Solving for H2O, Initial residual = 0.0183495, Final residual = 1.10236e-06, No Iterations 1
DILUPBiCGStab:  Solving for CH4, Initial residual = 0.0128028, Final residual = 7.33804e-07, No Iterations 1
DILUPBiCGStab:  Solving for CO2, Initial residual = 0.0183495, Final residual = 1.10236e-06, No Iterations 1
Radiation solver iter: 0
GAMG:  Solving for ILambda_0_0, Initial residual = 1, Final residual = 0.00876647, No Iterations 1
GAMG:  Solving for ILambda_1_0, Initial residual = 1, Final residual = 0.000525376, No Iterations 1
GAMG:  Solving for ILambda_2_0, Initial residual = 1, Final residual = 0.100794, No Iterations 1
GAMG:  Solving for ILambda_3_0, Initial residual = 1, Final residual = 0.0426381, No Iterations 1
GAMG:  Solving for ILambda_4_0, Initial residual = 1, Final residual = 0.0471563, No Iterations 1
GAMG:  Solving for ILambda_5_0, Initial residual = 1, Final residual = 0.177493, No Iterations 1
GAMG:  Solving for ILambda_6_0, Initial residual = 1, Final residual = 0.573407, No Iterations 1
GAMG:  Solving for ILambda_7_0, Initial residual = 1, Final residual = 0.425402, No Iterations 1
GAMG:  Solving for ILambda_8_0, Initial residual = 1, Final residual = 0.419844, No Iterations 1
GAMG:  Solving for ILambda_9_0, Initial residual = 1, Final residual = 0.471492, No Iterations 1
GAMG:  Solving for ILambda_10_0, Initial residual = 1, Final residual = 0.233599, No Iterations 1
GAMG:  Solving for ILambda_11_0, Initial residual = 1, Final residual = 0.051392, No Iterations 1
GAMG:  Solving for ILambda_12_0, Initial residual = 1, Final residual = 2.55128e-07, No Iterations 1
GAMG:  Solving for ILambda_13_0, Initial residual = 1, Final residual = 3.39822e-05, No Iterations 1
GAMG:  Solving for ILambda_14_0, Initial residual = 1, Final residual = 0.634423, No Iterations 1
GAMG:  Solving for ILambda_15_0, Initial residual = 1, Final residual = 0.489691, No Iterations 1
DILUPBiCGStab:  Solving for h, Initial residual = 0.0182899, Final residual = 7.67798e-11, No Iterations 1
min/max(T) = 300, 329.004
GAMG:  Solving for p_rgh, Initial residual = 0.000115564, Final residual = 3.94328e-06, No Iterations 2
diagonal:  Solving for rho, Initial residual = 0, Final residual = 0, No Iterations 0
time step continuity errors : sum local = 4.2894e-09, global = 2.29662e-09, cumulative = 6.49408e-09
GAMG:  Solving for p_rgh, Initial residual = 5.40475e-06, Final residual = 4.5126e-07, No Iterations 3
diagonal:  Solving for rho, Initial residual = 0, Final residual = 0, No Iterations 0
time step continuity errors : sum local = 4.90933e-10, global = 1.03083e-10, cumulative = 6.59717e-09
DILUPBiCGStab:  Solving for k, Initial residual = 0.157967, Final residual = 5.76828e-09, No Iterations 1
ExecutionTime = 16.18 s  ClockTime = 17 s

Courant Number mean: 6.81503e-06 max: 0.04997
deltaT = 0.0833333
Time = 0.583333

diagonal:  Solving for rho, Initial residual = 0, Final residual = 0, No Iterations 0
PIMPLE: iteration 1
DILUPBiCGStab:  Solving for Ux, Initial residual = 0.0196526, Final residual = 2.573e-10, No Iterations 1
DILUPBiCGStab:  Solving for Uy, Initial residual = 0.00423307, Final residual = 3.37026e-07, No Iterations 1
DILUPBiCGStab:  Solving for Uz, Initial residual = 0.0167035, Final residual = 1.57494e-10, No Iterations 1
DILUPBiCGStab:  Solving for O2, Initial residual = 0.0126332, Final residual = 5.98618e-07, No Iterations 1
DILUPBiCGStab:  Solving for H2O, Initial residual = 0.014995, Final residual = 8.12057e-07, No Iterations 1
DILUPBiCGStab:  Solving for CH4, Initial residual = 0.0105878, Final residual = 4.11049e-07, No Iterations 1
DILUPBiCGStab:  Solving for CO2, Initial residual = 0.014995, Final residual = 8.12057e-07, No Iterations 1
DILUPBiCGStab:  Solving for h, Initial residual = 0.014951, Final residual = 8.17247e-07, No Iterations 1
min/max(T) = 300, 333.929
GAMG:  Solving for p_rgh, Initial residual = 0.000106818, Final residual = 3.26142e-06, No Iterations 2
diagonal:  Solving for rho, Initial residual = 0, Final residual = 0, No Iterations 0
time step continuity errors : sum local = 3.54986e-09, global = 1.92167e-09, cumulative = 8.51883e-09
GAMG:  Solving for p_rgh, Initial residual = 5.03739e-06, Final residual = 4.76936e-07, No Iterations 3
diagonal:  Solving for rho, Initial residual = 0, Final residual = 0, No Iterations 0
time step continuity errors : sum local = 5.19226e-10, global = 1.00243e-10, cumulative = 8.61907e-09
DILUPBiCGStab:  Solving for k, Initial residual = 0.130056, Final residual = 4.74752e-09, No Iterations 1
ExecutionTime = 17.48 s  ClockTime = 19 s

Courant Number mean: 7.11177e-06 max: 0.0600899
deltaT = 0.0833333
Time = 0.666667

diagonal:  Solving for rho, Initial residual = 0, Final residual = 0, No Iterations 0
PIMPLE: iteration 1
DILUPBiCGStab:  Solving for Ux, Initial residual = 0.0275875, Final residual = 5.5328e-10, No Iterations 1
DILUPBiCGStab:  Solving for Uy, Initial residual = 0.00550446, Final residual = 5.71058e-07, No Iterations 1
DILUPBiCGStab:  Solving for Uz, Initial residual = 0.0262049, Final residual = 2.89933e-10, No Iterations 1
DILUPBiCGStab:  Solving for O2, Initial residual = 0.0109372, Final residual = 8.22078e-07, No Iterations 1
DILUPBiCGStab:  Solving for H2O, Initial residual = 0.013036, Final residual = 1.126e-06, No Iterations 1
DILUPBiCGStab:  Solving for CH4, Initial residual = 0.00903397, Final residual = 5.44169e-07, No Iterations 1
DILUPBiCGStab:  Solving for CO2, Initial residual = 0.013036, Final residual = 1.126e-06, No Iterations 1
DILUPBiCGStab:  Solving for h, Initial residual = 0.0129919, Final residual = 1.15134e-10, No Iterations 1
min/max(T) = 300, 338.471
GAMG:  Solving for p_rgh, Initial residual = 0.000117172, Final residual = 8.02242e-06, No Iterations 1
diagonal:  Solving for rho, Initial residual = 0, Final residual = 0, No Iterations 0
time step continuity errors : sum local = 8.73588e-09, global = 1.99493e-09, cumulative = 1.0614e-08
GAMG:  Solving for p_rgh, Initial residual = 9.85453e-06, Final residual = 9.17295e-07, No Iterations 3
diagonal:  Solving for rho, Initial residual = 0, Final residual = 0, No Iterations 0
time step continuity errors : sum local = 9.99009e-10, global = 4.11171e-10, cumulative = 1.10252e-08
DILUPBiCGStab:  Solving for k, Initial residual = 0.110516, Final residual = 4.03381e-09, No Iterations 1
ExecutionTime = 18.79 s  ClockTime = 20 s

Courant Number mean: 7.59415e-06 max: 0.0733918
deltaT = 0.0833333
Time = 0.75

diagonal:  Solving for rho, Initial residual = 0, Final residual = 0, No Iterations 0
PIMPLE: iteration 1
DILUPBiCGStab:  Solving for Ux, Initial residual = 0.0353696, Final residual = 1.02703e-09, No Iterations 1
DILUPBiCGStab:  Solving for Uy, Initial residual = 0.00704923, Final residual = 8.99617e-07, No Iterations 1
DILUPBiCGStab:  Solving for Uz, Initial residual = 0.0338478, Final residual = 5.05357e-10, No Iterations 1
DILUPBiCGStab:  Solving for O2, Initial residual = 0.00986365, Final residual = 1.2841e-06, No Iterations 1
DILUPBiCGStab:  Solving for H2O, Initial residual = 0.0119635, Final residual = 1.69334e-06, No Iterations 1
DILUPBiCGStab:  Solving for CH4, Initial residual = 0.00787796, Final residual = 9.48543e-07, No Iterations 1
DILUPBiCGStab:  Solving for CO2, Initial residual = 0.0119635, Final residual = 1.69334e-06, No Iterations 1
DILUPBiCGStab:  Solving for h, Initial residual = 0.0119227, Final residual = 2.1881e-10, No Iterations 1
min/max(T) = 300, 342.642
GAMG:  Solving for p_rgh, Initial residual = 0.000116797, Final residual = 7.48287e-06, No Iterations 1
diagonal:  Solving for rho, Initial residual = 0, Final residual = 0, No Iterations 0
time step continuity errors : sum local = 8.15151e-09, global = 3.24296e-09, cumulative = 1.42681e-08
GAMG:  Solving for p_rgh, Initial residual = 9.05657e-06, Final residual = 9.64737e-07, No Iterations 3
diagonal:  Solving for rho, Initial residual = 0, Final residual = 0, No Iterations 0
time step continuity errors : sum local = 1.05106e-09, global = 2.65852e-10, cumulative = 1.4534e-08
DILUPBiCGStab:  Solving for k, Initial residual = 0.0961023, Final residual = 3.4772e-09, No Iterations 1
ExecutionTime = 20.1 s  ClockTime = 21 s

Courant Number mean: 8.3358e-06 max: 0.0889164
deltaT = 0.0833333
Time = 0.833333

diagonal:  Solving for rho, Initial residual = 0, Final residual = 0, No Iterations 0
PIMPLE: iteration 1
DILUPBiCGStab:  Solving for Ux, Initial residual = 0.045792, Final residual = 2.07988e-09, No Iterations 1
DILUPBiCGStab:  Solving for Uy, Initial residual = 0.00913229, Final residual = 2.42668e-10, No Iterations 1
DILUPBiCGStab:  Solving for Uz, Initial residual = 0.0447574, Final residual = 9.15187e-10, No Iterations 1
DILUPBiCGStab:  Solving for O2, Initial residual = 0.00925742, Final residual = 1.80877e-06, No Iterations 1
DILUPBiCGStab:  Solving for H2O, Initial residual = 0.0115085, Final residual = 2.34558e-06, No Iterations 1
DILUPBiCGStab:  Solving for CH4, Initial residual = 0.00701093, Final residual = 1.47771e-06, No Iterations 1
DILUPBiCGStab:  Solving for CO2, Initial residual = 0.0115085, Final residual = 2.34558e-06, No Iterations 1
DILUPBiCGStab:  Solving for h, Initial residual = 0.0114811, Final residual = 3.74271e-10, No Iterations 1
min/max(T) = 300, 346.566
GAMG:  Solving for p_rgh, Initial residual = 0.000123779, Final residual = 1.1412e-05, No Iterations 1
diagonal:  Solving for rho, Initial residual = 0, Final residual = 0, No Iterations 0
time step continuity errors : sum local = 1.24391e-08, global = 3.68924e-09, cumulative = 1.82232e-08
GAMG:  Solving for p_rgh, Initial residual = 1.10144e-05, Final residual = 3.23854e-07, No Iterations 4
diagonal:  Solving for rho, Initial residual = 0, Final residual = 0, No Iterations 0
time step continuity errors : sum local = 3.53101e-10, global = 1.11038e-10, cumulative = 1.83343e-08
DILUPBiCGStab:  Solving for k, Initial residual = 0.0850405, Final residual = 2.85027e-09, No Iterations 1
ExecutionTime = 21.44 s  ClockTime = 22 s

Courant Number mean: 9.38367e-06 max: 0.107201
deltaT = 0.0833333
Time = 0.916667

diagonal:  Solving for rho, Initial residual = 0, Final residual = 0, No Iterations 0
PIMPLE: iteration 1
DILUPBiCGStab:  Solving for Ux, Initial residual = 0.0554608, Final residual = 4.45871e-09, No Iterations 1
DILUPBiCGStab:  Solving for Uy, Initial residual = 0.0111536, Final residual = 8.16522e-10, No Iterations 1
DILUPBiCGStab:  Solving for Uz, Initial residual = 0.0553101, Final residual = 1.71097e-09, No Iterations 1
DILUPBiCGStab:  Solving for O2, Initial residual = 0.00902763, Final residual = 2.65152e-06, No Iterations 1
DILUPBiCGStab:  Solving for H2O, Initial residual = 0.0115006, Final residual = 3.28357e-06, No Iterations 1
DILUPBiCGStab:  Solving for CH4, Initial residual = 0.0063907, Final residual = 2.14664e-06, No Iterations 1
DILUPBiCGStab:  Solving for CO2, Initial residual = 0.0115006, Final residual = 3.28357e-06, No Iterations 1
DILUPBiCGStab:  Solving for h, Initial residual = 0.0114845, Final residual = 6.61348e-10, No Iterations 1
min/max(T) = 300, 350.415
GAMG:  Solving for p_rgh, Initial residual = 0.000139769, Final residual = 4.95026e-06, No Iterations 2
diagonal:  Solving for rho, Initial residual = 0, Final residual = 0, No Iterations 0
time step continuity errors : sum local = 5.39985e-09, global = 3.43716e-09, cumulative = 2.17714e-08
GAMG:  Solving for p_rgh, Initial residual = 8.93949e-06, Final residual = 5.64423e-07, No Iterations 3
diagonal:  Solving for rho, Initial residual = 0, Final residual = 0, No Iterations 0
time step continuity errors : sum local = 6.15919e-10, global = 1.15365e-10, cumulative = 2.18868e-08
DILUPBiCGStab:  Solving for k, Initial residual = 0.0763174, Final residual = 2.07482e-09, No Iterations 1
ExecutionTime = 22.78 s  ClockTime = 24 s

Courant Number mean: 1.07945e-05 max: 0.129271
deltaT = 0.0833333
Time = 1

diagonal:  Solving for rho, Initial residual = 0, Final residual = 0, No Iterations 0
PIMPLE: iteration 1
DILUPBiCGStab:  Solving for Ux, Initial residual = 0.0637877, Final residual = 1.12801e-08, No Iterations 1
DILUPBiCGStab:  Solving for Uy, Initial residual = 0.0128662, Final residual = 1.91406e-09, No Iterations 1
DILUPBiCGStab:  Solving for Uz, Initial residual = 0.0634987, Final residual = 3.39161e-09, No Iterations 1
DILUPBiCGStab:  Solving for O2, Initial residual = 0.00881988, Final residual = 3.93995e-06, No Iterations 1
DILUPBiCGStab:  Solving for H2O, Initial residual = 0.0112826, Final residual = 4.88885e-06, No Iterations 1
DILUPBiCGStab:  Solving for CH4, Initial residual = 0.00597612, Final residual = 2.99488e-06, No Iterations 1
DILUPBiCGStab:  Solving for CO2, Initial residual = 0.0112826, Final residual = 4.88885e-06, No Iterations 1
DILUPBiCGStab:  Solving for h, Initial residual = 0.0112746, Final residual = 1.28585e-09, No Iterations 1
min/max(T) = 300, 354.414
GAMG:  Solving for p_rgh, Initial residual = 0.000141306, Final residual = 4.49969e-06, No Iterations 2
diagonal:  Solving for rho, Initial residual = 0, Final residual = 0, No Iterations 0
time step continuity errors : sum local = 4.91257e-09, global = 1.38609e-09, cumulative = 2.32729e-08
GAMG:  Solving for p_rgh, Initial residual = 8.86533e-06, Final residual = 5.03438e-07, No Iterations 3
diagonal:  Solving for rho, Initial residual = 0, Final residual = 0, No Iterations 0
time step continuity errors : sum local = 5.49741e-10, global = 1.1994e-10, cumulative = 2.33928e-08
DILUPBiCGStab:  Solving for k, Initial residual = 0.0692843, Final residual = 1.89954e-09, No Iterations 1
ExecutionTime = 24.18 s  ClockTime = 25 s

Courant Number mean: 1.23473e-05 max: 0.157915
deltaT = 0.0833333
Time = 1.08333

diagonal:  Solving for rho, Initial residual = 0, Final residual = 0, No Iterations 0
PIMPLE: iteration 1
DILUPBiCGStab:  Solving for Ux, Initial residual = 0.061712, Final residual = 2.77669e-08, No Iterations 1
DILUPBiCGStab:  Solving for Uy, Initial residual = 0.0125309, Final residual = 3.82536e-09, No Iterations 1
DILUPBiCGStab:  Solving for Uz, Initial residual = 0.0616882, Final residual = 7.92948e-09, No Iterations 1
DILUPBiCGStab:  Solving for O2, Initial residual = 0.00861481, Final residual = 5.50529e-06, No Iterations 1
DILUPBiCGStab:  Solving for H2O, Initial residual = 0.0109199, Final residual = 6.8784e-06, No Iterations 1
DILUPBiCGStab:  Solving for CH4, Initial residual = 0.00593187, Final residual = 3.99067e-06, No Iterations 1
DILUPBiCGStab:  Solving for CO2, Initial residual = 0.0109199, Final residual = 6.8784e-06, No Iterations 1
DILUPBiCGStab:  Solving for h, Initial residual = 0.0109096, Final residual = 2.32039e-09, No Iterations 1
min/max(T) = 300, 358.848
GAMG:  Solving for p_rgh, Initial residual = 0.000150669, Final residual = 4.64541e-06, No Iterations 2
diagonal:  Solving for rho, Initial residual = 0, Final residual = 0, No Iterations 0
time step continuity errors : sum local = 5.07354e-09, global = 1.14618e-09, cumulative = 2.4539e-08
GAMG:  Solving for p_rgh, Initial residual = 9.80274e-06, Final residual = 9.35863e-07, No Iterations 2
diagonal:  Solving for rho, Initial residual = 0, Final residual = 0, No Iterations 0
time step continuity errors : sum local = 1.02227e-09, global = 5.88223e-10, cumulative = 2.51272e-08
DILUPBiCGStab:  Solving for k, Initial residual = 0.0635355, Final residual = 2.29602e-09, No Iterations 1
ExecutionTime = 25.49 s  ClockTime = 26 s

Courant Number mean: 1.40263e-05 max: 0.188852
deltaT = 0.0833333
Time = 1.16667

diagonal:  Solving for rho, Initial residual = 0, Final residual = 0, No Iterations 0
PIMPLE: iteration 1
DILUPBiCGStab:  Solving for Ux, Initial residual = 0.0593433, Final residual = 5.75992e-08, No Iterations 1
DILUPBiCGStab:  Solving for Uy, Initial residual = 0.0120979, Final residual = 7.11374e-09, No Iterations 1
DILUPBiCGStab:  Solving for Uz, Initial residual = 0.0590532, Final residual = 1.73206e-08, No Iterations 1
DILUPBiCGStab:  Solving for O2, Initial residual = 0.0087565, Final residual = 7.1491e-06, No Iterations 1
DILUPBiCGStab:  Solving for H2O, Initial residual = 0.0110803, Final residual = 9.44214e-06, No Iterations 1
DILUPBiCGStab:  Solving for CH4, Initial residual = 0.00634157, Final residual = 5.62171e-06, No Iterations 1
DILUPBiCGStab:  Solving for CO2, Initial residual = 0.0110803, Final residual = 9.44214e-06, No Iterations 1
DILUPBiCGStab:  Solving for h, Initial residual = 0.0110766, Final residual = 3.93432e-09, No Iterations 1
min/max(T) = 300, 364.077
GAMG:  Solving for p_rgh, Initial residual = 0.000168931, Final residual = 9.9744e-06, No Iterations 2
diagonal:  Solving for rho, Initial residual = 0, Final residual = 0, No Iterations 0
time step continuity errors : sum local = 1.08966e-08, global = 7.52224e-09, cumulative = 3.26495e-08
GAMG:  Solving for p_rgh, Initial residual = 1.65361e-05, Final residual = 2.95299e-07, No Iterations 4
diagonal:  Solving for rho, Initial residual = 0, Final residual = 0, No Iterations 0
time step continuity errors : sum local = 3.22831e-10, global = 7.82547e-11, cumulative = 3.27277e-08
DILUPBiCGStab:  Solving for k, Initial residual = 0.0588089, Final residual = 2.15785e-09, No Iterations 1
ExecutionTime = 26.8 s  ClockTime = 27 s

Courant Number mean: 1.65267e-05 max: 0.219977
deltaT = 0.0833333
Time = 1.25

diagonal:  Solving for rho, Initial residual = 0, Final residual = 0, No Iterations 0
PIMPLE: iteration 1
DILUPBiCGStab:  Solving for Ux, Initial residual = 0.0735168, Final residual = 1.18262e-07, No Iterations 1
DILUPBiCGStab:  Solving for Uy, Initial residual = 0.0149582, Final residual = 1.17722e-08, No Iterations 1
DILUPBiCGStab:  Solving for Uz, Initial residual = 0.0733577, Final residual = 3.6519e-08, No Iterations 1
DILUPBiCGStab:  Solving for O2, Initial residual = 0.00925946, Final residual = 9.5945e-06, No Iterations 1
DILUPBiCGStab:  Solving for H2O, Initial residual = 0.0117315, Final residual = 1.28921e-05, No Iterations 1
DILUPBiCGStab:  Solving for CH4, Initial residual = 0.00657324, Final residual = 7.34546e-06, No Iterations 1
DILUPBiCGStab:  Solving for CO2, Initial residual = 0.0117315, Final residual = 1.28921e-05, No Iterations 1
DILUPBiCGStab:  Solving for h, Initial residual = 0.0117525, Final residual = 6.38082e-09, No Iterations 1
min/max(T) = 300, 373.783
GAMG:  Solving for p_rgh, Initial residual = 0.000177201, Final residual = 1.29656e-05, No Iterations 2
diagonal:  Solving for rho, Initial residual = 0, Final residual = 0, No Iterations 0
time step continuity errors : sum local = 1.41908e-08, global = 1.05354e-08, cumulative = 4.32631e-08
GAMG:  Solving for p_rgh, Initial residual = 2.03312e-05, Final residual = 3.97806e-07, No Iterations 4
diagonal:  Solving for rho, Initial residual = 0, Final residual = 0, No Iterations 0
time step continuity errors : sum local = 4.35921e-10, global = 9.6573e-11, cumulative = 4.33597e-08
DILUPBiCGStab:  Solving for k, Initial residual = 0.054938, Final residual = 5.18068e-09, No Iterations 1
ExecutionTime = 28.21 s  ClockTime = 29 s

Courant Number mean: 2.01675e-05 max: 0.250022
deltaT = 0.0833333
Time = 1.33333

diagonal:  Solving for rho, Initial residual = 0, Final residual = 0, No Iterations 0
PIMPLE: iteration 1
DILUPBiCGStab:  Solving for Ux, Initial residual = 0.0860326, Final residual = 1.86828e-07, No Iterations 1
DILUPBiCGStab:  Solving for Uy, Initial residual = 0.0176048, Final residual = 1.71798e-08, No Iterations 1
DILUPBiCGStab:  Solving for Uz, Initial residual = 0.0862382, Final residual = 6.69495e-08, No Iterations 1
DILUPBiCGStab:  Solving for O2, Initial residual = 0.0101038, Final residual = 1.3997e-05, No Iterations 1
DILUPBiCGStab:  Solving for H2O, Initial residual = 0.0127833, Final residual = 1.7868e-05, No Iterations 1
DILUPBiCGStab:  Solving for CH4, Initial residual = 0.00584916, Final residual = 8.29806e-06, No Iterations 1
DILUPBiCGStab:  Solving for CO2, Initial residual = 0.0127833, Final residual = 1.7868e-05, No Iterations 1
Radiation solver iter: 0
GAMG:  Solving for ILambda_0_0, Initial residual = 0.350832, Final residual = 0.000787075, No Iterations 1
GAMG:  Solving for ILambda_1_0, Initial residual = 0.438201, Final residual = 4.50312e-05, No Iterations 1
GAMG:  Solving for ILambda_2_0, Initial residual = 0.725213, Final residual = 0.0207575, No Iterations 1
GAMG:  Solving for ILambda_3_0, Initial residual = 0.764109, Final residual = 0.0103437, No Iterations 1
GAMG:  Solving for ILambda_4_0, Initial residual = 0.765102, Final residual = 0.0107381, No Iterations 1
GAMG:  Solving for ILambda_5_0, Initial residual = 0.714132, Final residual = 0.0394562, No Iterations 1
GAMG:  Solving for ILambda_6_0, Initial residual = 0.419036, Final residual = 0.148802, No Iterations 1
GAMG:  Solving for ILambda_7_0, Initial residual = 0.347078, Final residual = 0.10252, No Iterations 1
GAMG:  Solving for ILambda_8_0, Initial residual = 0.34555, Final residual = 0.102245, No Iterations 1
GAMG:  Solving for ILambda_9_0, Initial residual = 0.420905, Final residual = 0.123926, No Iterations 1
GAMG:  Solving for ILambda_10_0, Initial residual = 0.708615, Final residual = 0.0476759, No Iterations 1
GAMG:  Solving for ILambda_11_0, Initial residual = 0.763218, Final residual = 0.0109238, No Iterations 1
GAMG:  Solving for ILambda_12_0, Initial residual = 0.768467, Final residual = 3.76657e-08, No Iterations 1
GAMG:  Solving for ILambda_13_0, Initial residual = 0.734586, Final residual = 2.70282e-05, No Iterations 1
GAMG:  Solving for ILambda_14_0, Initial residual = 0.42728, Final residual = 0.187798, No Iterations 1
GAMG:  Solving for ILambda_15_0, Initial residual = 0.345506, Final residual = 0.124016, No Iterations 1
DILUPBiCGStab:  Solving for h, Initial residual = 0.0128325, Final residual = 1.80188e-08, No Iterations 1
min/max(T) = 300, 384.926
GAMG:  Solving for p_rgh, Initial residual = 0.000171545, Final residual = 1.55005e-05, No Iterations 2
diagonal:  Solving for rho, Initial residual = 0, Final residual = 0, No Iterations 0
time step continuity errors : sum local = 1.7009e-08, global = 1.28781e-08, cumulative = 5.62378e-08
GAMG:  Solving for p_rgh, Initial residual = 2.35953e-05, Final residual = 4.85001e-07, No Iterations 4
diagonal:  Solving for rho, Initial residual = 0, Final residual = 0, No Iterations 0
time step continuity errors : sum local = 5.3298e-10, global = 1.08044e-10, cumulative = 5.63458e-08
DILUPBiCGStab:  Solving for k, Initial residual = 0.0518319, Final residual = 1.91183e-08, No Iterations 1
ExecutionTime = 30.22 s  ClockTime = 30 s

Courant Number mean: 2.52031e-05 max: 0.278643
deltaT = 0.0833333
Time = 1.41667

diagonal:  Solving for rho, Initial residual = 0, Final residual = 0, No Iterations 0
PIMPLE: iteration 1
DILUPBiCGStab:  Solving for Ux, Initial residual = 0.0939152, Final residual = 2.5817e-07, No Iterations 1
DILUPBiCGStab:  Solving for Uy, Initial residual = 0.0193676, Final residual = 2.33672e-08, No Iterations 1
DILUPBiCGStab:  Solving for Uz, Initial residual = 0.0945288, Final residual = 1.07819e-07, No Iterations 1
DILUPBiCGStab:  Solving for O2, Initial residual = 0.0111688, Final residual = 1.96124e-05, No Iterations 1
DILUPBiCGStab:  Solving for H2O, Initial residual = 0.0139977, Final residual = 2.50477e-05, No Iterations 1
DILUPBiCGStab:  Solving for CH4, Initial residual = 0.00612962, Final residual = 1.09649e-05, No Iterations 1
DILUPBiCGStab:  Solving for CO2, Initial residual = 0.0139977, Final residual = 2.50477e-05, No Iterations 1
DILUPBiCGStab:  Solving for h, Initial residual = 0.0140312, Final residual = 3.28438e-08, No Iterations 1
min/max(T) = 300, 397.71
GAMG:  Solving for p_rgh, Initial residual = 0.000190674, Final residual = 1.88195e-05, No Iterations 2
diagonal:  Solving for rho, Initial residual = 0, Final residual = 0, No Iterations 0
time step continuity errors : sum local = 2.07165e-08, global = 1.56046e-08, cumulative = 7.19505e-08
GAMG:  Solving for p_rgh, Initial residual = 2.88313e-05, Final residual = 5.97854e-07, No Iterations 4
diagonal:  Solving for rho, Initial residual = 0, Final residual = 0, No Iterations 0
time step continuity errors : sum local = 6.59295e-10, global = 1.40638e-10, cumulative = 7.20911e-08
DILUPBiCGStab:  Solving for k, Initial residual = 0.049466, Final residual = 6.96379e-09, No Iterations 1
ExecutionTime = 31.52 s  ClockTime = 32 s

Courant Number mean: 3.20362e-05 max: 0.334173
deltaT = 0.0833333
Time = 1.5

diagonal:  Solving for rho, Initial residual = 0, Final residual = 0, No Iterations 0
PIMPLE: iteration 1
DILUPBiCGStab:  Solving for Ux, Initial residual = 0.0991672, Final residual = 3.0886e-07, No Iterations 1
DILUPBiCGStab:  Solving for Uy, Initial residual = 0.0205042, Final residual = 3.43518e-08, No Iterations 1
DILUPBiCGStab:  Solving for Uz, Initial residual = 0.0997085, Final residual = 1.44192e-07, No Iterations 1
DILUPBiCGStab:  Solving for O2, Initial residual = 0.0116482, Final residual = 2.90332e-05, No Iterations 1
DILUPBiCGStab:  Solving for H2O, Initial residual = 0.0142045, Final residual = 3.5648e-05, No Iterations 1
DILUPBiCGStab:  Solving for CH4, Initial residual = 0.00700526, Final residual = 1.8507e-05, No Iterations 1
DILUPBiCGStab:  Solving for CO2, Initial residual = 0.0142045, Final residual = 3.5648e-05, No Iterations 1
DILUPBiCGStab:  Solving for h, Initial residual = 0.0142199, Final residual = 4.40333e-08, No Iterations 1
min/max(T) = 300, 412.994
GAMG:  Solving for p_rgh, Initial residual = 0.000195719, Final residual = 8.08292e-06, No Iterations 2
diagonal:  Solving for rho, Initial residual = 0, Final residual = 0, No Iterations 0
time step continuity errors : sum local = 8.93318e-09, global = 5.72472e-09, cumulative = 7.78158e-08
GAMG:  Solving for p_rgh, Initial residual = 1.78449e-05, Final residual = 3.10709e-07, No Iterations 4
diagonal:  Solving for rho, Initial residual = 0, Final residual = 0, No Iterations 0
time step continuity errors : sum local = 3.43817e-10, global = 1.04499e-10, cumulative = 7.79203e-08
DILUPBiCGStab:  Solving for k, Initial residual = 0.0479076, Final residual = 1.52412e-08, No Iterations 1
ExecutionTime = 32.91 s  ClockTime = 33 s

Courant Number mean: 3.95422e-05 max: 0.402135
deltaT = 0.0833333
Time = 1.58333

diagonal:  Solving for rho, Initial residual = 0, Final residual = 0, No Iterations 0
PIMPLE: iteration 1
DILUPBiCGStab:  Solving for Ux, Initial residual = 0.0891896, Final residual = 4.40941e-07, No Iterations 1
DILUPBiCGStab:  Solving for Uy, Initial residual = 0.0184025, Final residual = 5.22404e-08, No Iterations 1
DILUPBiCGStab:  Solving for Uz, Initial residual = 0.0895862, Final residual = 2.02459e-07, No Iterations 1
DILUPBiCGStab:  Solving for O2, Initial residual = 0.0120361, Final residual = 4.78032e-05, No Iterations 1
DILUPBiCGStab:  Solving for H2O, Initial residual = 0.0143357, Final residual = 5.56274e-05, No Iterations 1
DILUPBiCGStab:  Solving for CH4, Initial residual = 0.00704696, Final residual = 3.17649e-05, No Iterations 1
DILUPBiCGStab:  Solving for CO2, Initial residual = 0.0143357, Final residual = 5.56274e-05, No Iterations 1
DILUPBiCGStab:  Solving for h, Initial residual = 0.0143273, Final residual = 1.3056e-07, No Iterations 1
min/max(T) = 300, 433.61
GAMG:  Solving for p_rgh, Initial residual = 0.000269337, Final residual = 2.04358e-05, No Iterations 2
diagonal:  Solving for rho, Initial residual = 0, Final residual = 0, No Iterations 0
time step continuity errors : sum local = 2.26138e-08, global = 1.50411e-08, cumulative = 9.29614e-08
GAMG:  Solving for p_rgh, Initial residual = 3.1119e-05, Final residual = 6.63407e-07, No Iterations 4
diagonal:  Solving for rho, Initial residual = 0, Final residual = 0, No Iterations 0
time step continuity errors : sum local = 7.35608e-10, global = 6.14513e-11, cumulative = 9.30228e-08
DILUPBiCGStab:  Solving for k, Initial residual = 0.047311, Final residual = 3.57579e-08, No Iterations 1
ExecutionTime = 34.23 s  ClockTime = 34 s

Courant Number mean: 4.91527e-05 max: 0.462249
deltaT = 0.0833333
Time = 1.66667

diagonal:  Solving for rho, Initial residual = 0, Final residual = 0, No Iterations 0
PIMPLE: iteration 1
DILUPBiCGStab:  Solving for Ux, Initial residual = 0.091759, Final residual = 4.8782e-07, No Iterations 1
DILUPBiCGStab:  Solving for Uy, Initial residual = 0.0188392, Final residual = 8.46648e-08, No Iterations 1
DILUPBiCGStab:  Solving for Uz, Initial residual = 0.0914784, Final residual = 2.04973e-07, No Iterations 1
DILUPBiCGStab:  Solving for O2, Initial residual = 0.0125615, Final residual = 6.75233e-05, No Iterations 1
DILUPBiCGStab:  Solving for H2O, Initial residual = 0.0147151, Final residual = 7.7175e-05, No Iterations 1
DILUPBiCGStab:  Solving for CH4, Initial residual = 0.00718064, Final residual = 4.48322e-05, No Iterations 1
DILUPBiCGStab:  Solving for CO2, Initial residual = 0.0147151, Final residual = 7.7175e-05, No Iterations 1
DILUPBiCGStab:  Solving for h, Initial residual = 0.0147169, Final residual = 2.15278e-07, No Iterations 1
min/max(T) = 300, 457.495
GAMG:  Solving for p_rgh, Initial residual = 0.000292043, Final residual = 2.0887e-05, No Iterations 3
diagonal:  Solving for rho, Initial residual = 0, Final residual = 0, No Iterations 0
time step continuity errors : sum local = 2.32157e-08, global = 7.90388e-09, cumulative = 1.00927e-07
GAMG:  Solving for p_rgh, Initial residual = 3.3723e-05, Final residual = 8.52481e-07, No Iterations 4
diagonal:  Solving for rho, Initial residual = 0, Final residual = 0, No Iterations 0
time step continuity errors : sum local = 9.54229e-10, global = -1.24284e-10, cumulative = 1.00802e-07
DILUPBiCGStab:  Solving for k, Initial residual = 0.0479339, Final residual = 9.98504e-08, No Iterations 1
ExecutionTime = 35.55 s  ClockTime = 35 s

Courant Number mean: 6.25176e-05 max: 0.522464
deltaT = 0.0833333
Time = 1.75

diagonal:  Solving for rho, Initial residual = 0, Final residual = 0, No Iterations 0
PIMPLE: iteration 1
DILUPBiCGStab:  Solving for Ux, Initial residual = 0.0997369, Final residual = 4.66918e-07, No Iterations 1
DILUPBiCGStab:  Solving for Uy, Initial residual = 0.0204485, Final residual = 1.41543e-07, No Iterations 1
DILUPBiCGStab:  Solving for Uz, Initial residual = 0.0994537, Final residual = 1.96906e-07, No Iterations 1
DILUPBiCGStab:  Solving for O2, Initial residual = 0.0130546, Final residual = 9.15933e-05, No Iterations 1
DILUPBiCGStab:  Solving for H2O, Initial residual = 0.0150864, Final residual = 0.000103655, No Iterations 1
DILUPBiCGStab:  Solving for CH4, Initial residual = 0.00751239, Final residual = 5.82182e-05, No Iterations 1
DILUPBiCGStab:  Solving for CO2, Initial residual = 0.0150864, Final residual = 0.000103655, No Iterations 1
DILUPBiCGStab:  Solving for h, Initial residual = 0.0151035, Final residual = 3.63032e-07, No Iterations 1
min/max(T) = 300, 483.439
GAMG:  Solving for p_rgh, Initial residual = 0.00034618, Final residual = 2.34659e-05, No Iterations 3
diagonal:  Solving for rho, Initial residual = 0, Final residual = 0, No Iterations 0
time step continuity errors : sum local = 2.63027e-08, global = 9.23273e-09, cumulative = 1.10035e-07
GAMG:  Solving for p_rgh, Initial residual = 4.3145e-05, Final residual = 7.7008e-07, No Iterations 4
diagonal:  Solving for rho, Initial residual = 0, Final residual = 0, No Iterations 0
time step continuity errors : sum local = 8.69453e-10, global = -1.19028e-10, cumulative = 1.09916e-07
DILUPBiCGStab:  Solving for k, Initial residual = 0.050328, Final residual = 2.53097e-07, No Iterations 1
ExecutionTime = 36.95 s  ClockTime = 37 s

Courant Number mean: 7.97965e-05 max: 0.633501
deltaT = 0.0833333
Time = 1.83333

diagonal:  Solving for rho, Initial residual = 0, Final residual = 0, No Iterations 0
PIMPLE: iteration 1
DILUPBiCGStab:  Solving for Ux, Initial residual = 0.101108, Final residual = 4.34247e-07, No Iterations 1
DILUPBiCGStab:  Solving for Uy, Initial residual = 0.0207496, Final residual = 2.44795e-07, No Iterations 1
DILUPBiCGStab:  Solving for Uz, Initial residual = 0.101147, Final residual = 2.40398e-07, No Iterations 1
DILUPBiCGStab:  Solving for O2, Initial residual = 0.0131652, Final residual = 0.000120957, No Iterations 1
DILUPBiCGStab:  Solving for H2O, Initial residual = 0.0148854, Final residual = 0.000133851, No Iterations 1
DILUPBiCGStab:  Solving for CH4, Initial residual = 0.00761476, Final residual = 7.89817e-05, No Iterations 1
DILUPBiCGStab:  Solving for CO2, Initial residual = 0.0148854, Final residual = 0.000133851, No Iterations 1
DILUPBiCGStab:  Solving for h, Initial residual = 0.0148996, Final residual = 6.09573e-07, No Iterations 1
min/max(T) = 300, 511.081
GAMG:  Solving for p_rgh, Initial residual = 0.000463046, Final residual = 2.60094e-05, No Iterations 3
diagonal:  Solving for rho, Initial residual = 0, Final residual = 0, No Iterations 0
time step continuity errors : sum local = 2.94166e-08, global = 1.65371e-08, cumulative = 1.26453e-07
GAMG:  Solving for p_rgh, Initial residual = 6.15831e-05, Final residual = 4.06098e-07, No Iterations 5
diagonal:  Solving for rho, Initial residual = 0, Final residual = 0, No Iterations 0
time step continuity errors : sum local = 4.61527e-10, global = 2.4321e-10, cumulative = 1.26696e-07
DILUPBiCGStab:  Solving for k, Initial residual = 0.0555067, Final residual = 5.30153e-07, No Iterations 1
ExecutionTime = 38.28 s  ClockTime = 38 s

Courant Number mean: 0.000100219 max: 0.747058
deltaT = 0.0833333
Time = 1.91667

diagonal:  Solving for rho, Initial residual = 0, Final residual = 0, No Iterations 0
PIMPLE: iteration 1
DILUPBiCGStab:  Solving for Ux, Initial residual = 0.0967775, Final residual = 6.08145e-07, No Iterations 1
DILUPBiCGStab:  Solving for Uy, Initial residual = 0.0197156, Final residual = 3.9021e-07, No Iterations 1
DILUPBiCGStab:  Solving for Uz, Initial residual = 0.0963914, Final residual = 5.69472e-07, No Iterations 1
DILUPBiCGStab:  Solving for O2, Initial residual = 0.0134809, Final residual = 0.000147864, No Iterations 1
DILUPBiCGStab:  Solving for H2O, Initial residual = 0.0150587, Final residual = 0.000160361, No Iterations 1
DILUPBiCGStab:  Solving for CH4, Initial residual = 0.00768713, Final residual = 9.96791e-05, No Iterations 1
DILUPBiCGStab:  Solving for CO2, Initial residual = 0.0150587, Final residual = 0.000160361, No Iterations 1
DILUPBiCGStab:  Solving for h, Initial residual = 0.0150815, Final residual = 9.13263e-07, No Iterations 1
min/max(T) = 300, 543.569
GAMG:  Solving for p_rgh, Initial residual = 0.000703568, Final residual = 4.92064e-05, No Iterations 3
diagonal:  Solving for rho, Initial residual = 0, Final residual = 0, No Iterations 0
time step continuity errors : sum local = 5.60437e-08, global = 2.25341e-08, cumulative = 1.49231e-07
GAMG:  Solving for p_rgh, Initial residual = 9.24769e-05, Final residual = 6.9728e-07, No Iterations 5
diagonal:  Solving for rho, Initial residual = 0, Final residual = 0, No Iterations 0
time step continuity errors : sum local = 8.04982e-10, global = 4.14177e-10, cumulative = 1.49645e-07
DILUPBiCGStab:  Solving for k, Initial residual = 0.0651505, Final residual = 9.28006e-09, No Iterations 2
ExecutionTime = 39.69 s  ClockTime = 39 s

Courant Number mean: 0.000128158 max: 0.84598
deltaT = 0.0833333
Time = 2

diagonal:  Solving for rho, Initial residual = 0, Final residual = 0, No Iterations 0
PIMPLE: iteration 1
DILUPBiCGStab:  Solving for Ux, Initial residual = 0.103298, Final residual = 3.55497e-08, No Iterations 2
DILUPBiCGStab:  Solving for Uy, Initial residual = 0.0209141, Final residual = 8.06696e-07, No Iterations 1
DILUPBiCGStab:  Solving for Uz, Initial residual = 0.102344, Final residual = 1.06387e-08, No Iterations 2
DILUPBiCGStab:  Solving for O2, Initial residual = 0.0133535, Final residual = 0.00019946, No Iterations 1
DILUPBiCGStab:  Solving for H2O, Initial residual = 0.0147065, Final residual = 0.000214995, No Iterations 1
DILUPBiCGStab:  Solving for CH4, Initial residual = 0.00795458, Final residual = 0.0001281, No Iterations 1
DILUPBiCGStab:  Solving for CO2, Initial residual = 0.0147065, Final residual = 0.000214995, No Iterations 1
DILUPBiCGStab:  Solving for h, Initial residual = 0.0147467, Final residual = 9.50146e-09, No Iterations 2
min/max(T) = 300, 583.179
GAMG:  Solving for p_rgh, Initial residual = 0.000969005, Final residual = 5.60413e-05, No Iterations 3
diagonal:  Solving for rho, Initial residual = 0, Final residual = 0, No Iterations 0
time step continuity errors : sum local = 6.49505e-08, global = 3.75036e-08, cumulative = 1.87148e-07
GAMG:  Solving for p_rgh, Initial residual = 0.000167467, Final residual = 7.59694e-07, No Iterations 6
diagonal:  Solving for rho, Initial residual = 0, Final residual = 0, No Iterations 0
time step continuity errors : sum local = 8.87878e-10, global = -2.73966e-11, cumulative = 1.87121e-07
DILUPBiCGStab:  Solving for k, Initial residual = 0.0825047, Final residual = 2.97957e-08, No Iterations 2
ExecutionTime = 41.11 s  ClockTime = 40 s

Courant Number mean: 0.000162272 max: 1.00071
deltaT = 0.03125
Time = 2.03125

diagonal:  Solving for rho, Initial residual = 0, Final residual = 0, No Iterations 0
PIMPLE: iteration 1
DILUPBiCGStab:  Solving for Ux, Initial residual = 0.0397135, Final residual = 1.71672e-08, No Iterations 1
DILUPBiCGStab:  Solving for Uy, Initial residual = 0.00754784, Final residual = 1.04198e-08, No Iterations 1
DILUPBiCGStab:  Solving for Uz, Initial residual = 0.039494, Final residual = 2.72986e-08, No Iterations 1
DILUPBiCGStab:  Solving for O2, Initial residual = 0.0052841, Final residual = 1.68096e-05, No Iterations 1
DILUPBiCGStab:  Solving for H2O, Initial residual = 0.00574476, Final residual = 1.77986e-05, No Iterations 1
DILUPBiCGStab:  Solving for CH4, Initial residual = 0.00298777, Final residual = 1.13409e-05, No Iterations 1
DILUPBiCGStab:  Solving for CO2, Initial residual = 0.00574476, Final residual = 1.77986e-05, No Iterations 1
DILUPBiCGStab:  Solving for h, Initial residual = 0.00576342, Final residual = 3.86726e-08, No Iterations 1
min/max(T) = 300, 600.829
GAMG:  Solving for p_rgh, Initial residual = 0.00162254, Final residual = 4.94682e-05, No Iterations 4
diagonal:  Solving for rho, Initial residual = 0, Final residual = 0, No Iterations 0
time step continuity errors : sum local = 8.20378e-09, global = 1.70157e-09, cumulative = 1.88822e-07
GAMG:  Solving for p_rgh, Initial residual = 0.000133224, Final residual = 7.16711e-07, No Iterations 5
diagonal:  Solving for rho, Initial residual = 0, Final residual = 0, No Iterations 0
time step continuity errors : sum local = 1.35355e-10, global = 2.35734e-11, cumulative = 1.88846e-07
DILUPBiCGStab:  Solving for k, Initial residual = 0.039498, Final residual = 1.16337e-07, No Iterations 1
ExecutionTime = 42.52 s  ClockTime = 42 s

Courant Number mean: 7.27954e-05 max: 0.379881
deltaT = 0.04375
Time = 2.075

diagonal:  Solving for rho, Initial residual = 0, Final residual = 0, No Iterations 0
PIMPLE: iteration 1
DILUPBiCGStab:  Solving for Ux, Initial residual = 0.109584, Final residual = 5.56308e-07, No Iterations 1
DILUPBiCGStab:  Solving for Uy, Initial residual = 0.0205988, Final residual = 8.14727e-08, No Iterations 1
DILUPBiCGStab:  Solving for Uz, Initial residual = 0.105807, Final residual = 7.14573e-07, No Iterations 1
DILUPBiCGStab:  Solving for O2, Initial residual = 0.00734672, Final residual = 4.99792e-05, No Iterations 1
DILUPBiCGStab:  Solving for H2O, Initial residual = 0.00793985, Final residual = 5.32204e-05, No Iterations 1
DILUPBiCGStab:  Solving for CH4, Initial residual = 0.00417572, Final residual = 3.25697e-05, No Iterations 1
DILUPBiCGStab:  Solving for CO2, Initial residual = 0.00793985, Final residual = 5.32204e-05, No Iterations 1
Radiation solver iter: 0
GAMG:  Solving for ILambda_0_0, Initial residual = 0.639131, Final residual = 0.00209833, No Iterations 1
GAMG:  Solving for ILambda_1_0, Initial residual = 0.717343, Final residual = 0.000193389, No Iterations 1
GAMG:  Solving for ILambda_2_0, Initial residual = 0.874428, Final residual = 0.0855446, No Iterations 1
GAMG:  Solving for ILambda_3_0, Initial residual = 0.894035, Final residual = 0.0288888, No Iterations 1
GAMG:  Solving for ILambda_4_0, Initial residual = 0.894208, Final residual = 0.0206755, No Iterations 1
GAMG:  Solving for ILambda_5_0, Initial residual = 0.872195, Final residual = 0.066608, No Iterations 1
GAMG:  Solving for ILambda_6_0, Initial residual = 0.700555, Final residual = 0.172054, No Iterations 1
GAMG:  Solving for ILambda_7_0, Initial residual = 0.629343, Final residual = 0.129807, No Iterations 1
GAMG:  Solving for ILambda_8_0, Initial residual = 0.626278, Final residual = 0.129483, No Iterations 1
GAMG:  Solving for ILambda_9_0, Initial residual = 0.704033, Final residual = 0.147233, No Iterations 1
GAMG:  Solving for ILambda_10_0, Initial residual = 0.871333, Final residual = 0.0839364, No Iterations 1
GAMG:  Solving for ILambda_11_0, Initial residual = 0.894076, Final residual = 0.0208691, No Iterations 1
GAMG:  Solving for ILambda_12_0, Initial residual = 0.894912, Final residual = 1.52113e-08, No Iterations 1
GAMG:  Solving for ILambda_13_0, Initial residual = 0.87626, Final residual = 0.000234728, No Iterations 1
GAMG:  Solving for ILambda_14_0, Initial residual = 0.709415, Final residual = 0.211035, No Iterations 1
GAMG:  Solving for ILambda_15_0, Initial residual = 0.624522, Final residual = 0.151946, No Iterations 1
DILUPBiCGStab:  Solving for h, Initial residual = 0.00807385, Final residual = 2.40187e-07, No Iterations 1
min/max(T) = 300, 624.553
GAMG:  Solving for p_rgh, Initial residual = 0.00245424, Final residual = 0.000133785, No Iterations 3
diagonal:  Solving for rho, Initial residual = 0, Final residual = 0, No Iterations 0
time step continuity errors : sum local = 4.94015e-08, global = -4.67683e-09, cumulative = 1.84169e-07
GAMG:  Solving for p_rgh, Initial residual = 0.000366336, Final residual = 4.4767e-07, No Iterations 6
diagonal:  Solving for rho, Initial residual = 0, Final residual = 0, No Iterations 0
time step continuity errors : sum local = 1.62912e-10, global = -3.2701e-11, cumulative = 1.84137e-07
DILUPBiCGStab:  Solving for k, Initial residual = 0.0584881, Final residual = 8.16015e-07, No Iterations 1
ExecutionTime = 44.67 s  ClockTime = 47 s

Courant Number mean: 0.00012114 max: 0.572048
deltaT = 0.04375
Time = 2.11875

diagonal:  Solving for rho, Initial residual = 0, Final residual = 0, No Iterations 0
PIMPLE: iteration 1
DILUPBiCGStab:  Solving for Ux, Initial residual = 0.0763383, Final residual = 4.27306e-07, No Iterations 1
DILUPBiCGStab:  Solving for Uy, Initial residual = 0.0151076, Final residual = 8.82416e-08, No Iterations 1
DILUPBiCGStab:  Solving for Uz, Initial residual = 0.0801574, Final residual = 3.98507e-07, No Iterations 1
DILUPBiCGStab:  Solving for O2, Initial residual = 0.00715144, Final residual = 5.42483e-05, No Iterations 1
DILUPBiCGStab:  Solving for H2O, Initial residual = 0.00766319, Final residual = 5.74141e-05, No Iterations 1
DILUPBiCGStab:  Solving for CH4, Initial residual = 0.00420693, Final residual = 3.42445e-05, No Iterations 1
DILUPBiCGStab:  Solving for CO2, Initial residual = 0.00766319, Final residual = 5.74141e-05, No Iterations 1
DILUPBiCGStab:  Solving for h, Initial residual = 0.00765768, Final residual = 2.89878e-07, No Iterations 1
min/max(T) = 300, 650.285
GAMG:  Solving for p_rgh, Initial residual = 0.00160596, Final residual = 0.000108457, No Iterations 3
diagonal:  Solving for rho, Initial residual = 0, Final residual = 0, No Iterations 0
time step continuity errors : sum local = 3.93067e-08, global = -9.34614e-09, cumulative = 1.7479e-07
GAMG:  Solving for p_rgh, Initial residual = 0.000236886, Final residual = 8.61733e-07, No Iterations 6
diagonal:  Solving for rho, Initial residual = 0, Final residual = 0, No Iterations 0
time step continuity errors : sum local = 2.89698e-10, global = 1.55456e-11, cumulative = 1.74806e-07
DILUPBiCGStab:  Solving for k, Initial residual = 0.0505646, Final residual = 5.58995e-09, No Iterations 2
ExecutionTime = 46.06 s  ClockTime = 48 s

Courant Number mean: 0.000133772 max: 0.626864
deltaT = 0.04375
Time = 2.1625

diagonal:  Solving for rho, Initial residual = 0, Final residual = 0, No Iterations 0
PIMPLE: iteration 1
DILUPBiCGStab:  Solving for Ux, Initial residual = 0.0479571, Final residual = 3.39406e-07, No Iterations 1
DILUPBiCGStab:  Solving for Uy, Initial residual = 0.00945558, Final residual = 1.05998e-07, No Iterations 1
DILUPBiCGStab:  Solving for Uz, Initial residual = 0.0490927, Final residual = 3.573e-07, No Iterations 1
DILUPBiCGStab:  Solving for O2, Initial residual = 0.00713332, Final residual = 5.91847e-05, No Iterations 1
DILUPBiCGStab:  Solving for H2O, Initial residual = 0.00754598, Final residual = 6.21546e-05, No Iterations 1
DILUPBiCGStab:  Solving for CH4, Initial residual = 0.00431229, Final residual = 3.95673e-05, No Iterations 1
DILUPBiCGStab:  Solving for CO2, Initial residual = 0.00754598, Final residual = 6.21546e-05, No Iterations 1
DILUPBiCGStab:  Solving for h, Initial residual = 0.00751178, Final residual = 3.68827e-07, No Iterations 1
min/max(T) = 300, 672.502
GAMG:  Solving for p_rgh, Initial residual = 0.00186365, Final residual = 7.7272e-05, No Iterations 3
diagonal:  Solving for rho, Initial residual = 0, Final residual = 0, No Iterations 0
time step continuity errors : sum local = 2.57767e-08, global = 1.82925e-09, cumulative = 1.76635e-07
GAMG:  Solving for p_rgh, Initial residual = 0.0001934, Final residual = 5.28423e-07, No Iterations 5
diagonal:  Solving for rho, Initial residual = 0, Final residual = 0, No Iterations 0
time step continuity errors : sum local = 1.76725e-10, global = 6.68561e-12, cumulative = 1.76642e-07
DILUPBiCGStab:  Solving for k, Initial residual = 0.0361104, Final residual = 8.42677e-07, No Iterations 1
ExecutionTime = 47.43 s  ClockTime = 49 s

Courant Number mean: 0.000148388 max: 0.674207
deltaT = 0.04375
Time = 2.20625

diagonal:  Solving for rho, Initial residual = 0, Final residual = 0, No Iterations 0
PIMPLE: iteration 1
DILUPBiCGStab:  Solving for Ux, Initial residual = 0.0514703, Final residual = 6.19737e-07, No Iterations 1
DILUPBiCGStab:  Solving for Uy, Initial residual = 0.00960158, Final residual = 1.48232e-07, No Iterations 1
DILUPBiCGStab:  Solving for Uz, Initial residual = 0.0482994, Final residual = 5.71239e-07, No Iterations 1
DILUPBiCGStab:  Solving for O2, Initial residual = 0.00716392, Final residual = 6.43318e-05, No Iterations 1
DILUPBiCGStab:  Solving for H2O, Initial residual = 0.00753875, Final residual = 6.74628e-05, No Iterations 1
DILUPBiCGStab:  Solving for CH4, Initial residual = 0.00431135, Final residual = 4.19569e-05, No Iterations 1
DILUPBiCGStab:  Solving for CO2, Initial residual = 0.00753875, Final residual = 6.74628e-05, No Iterations 1
DILUPBiCGStab:  Solving for h, Initial residual = 0.0074896, Final residual = 4.32547e-07, No Iterations 1
min/max(T) = 300, 698.687
GAMG:  Solving for p_rgh, Initial residual = 0.00241897, Final residual = 0.00013407, No Iterations 3
diagonal:  Solving for rho, Initial residual = 0, Final residual = 0, No Iterations 0
time step continuity errors : sum local = 4.51851e-08, global = 1.26107e-08, cumulative = 1.89253e-07
GAMG:  Solving for p_rgh, Initial residual = 0.000351004, Final residual = 8.84709e-07, No Iterations 6
diagonal:  Solving for rho, Initial residual = 0, Final residual = 0, No Iterations 0
time step continuity errors : sum local = 3.10191e-10, global = -2.67567e-11, cumulative = 1.89226e-07
DILUPBiCGStab:  Solving for k, Initial residual = 0.0280134, Final residual = 8.23527e-07, No Iterations 1
ExecutionTime = 48.85 s  ClockTime = 50 s

Courant Number mean: 0.000167424 max: 0.716603
deltaT = 0.04375
Time = 2.25

diagonal:  Solving for rho, Initial residual = 0, Final residual = 0, No Iterations 0
PIMPLE: iteration 1
DILUPBiCGStab:  Solving for Ux, Initial residual = 0.0585417, Final residual = 9.73139e-07, No Iterations 1
DILUPBiCGStab:  Solving for Uy, Initial residual = 0.0110655, Final residual = 1.85907e-07, No Iterations 1
DILUPBiCGStab:  Solving for Uz, Initial residual = 0.0569059, Final residual = 8.50112e-07, No Iterations 1
DILUPBiCGStab:  Solving for O2, Initial residual = 0.00703243, Final residual = 7.35242e-05, No Iterations 1
DILUPBiCGStab:  Solving for H2O, Initial residual = 0.00738084, Final residual = 7.6556e-05, No Iterations 1
DILUPBiCGStab:  Solving for CH4, Initial residual = 0.00439261, Final residual = 4.77809e-05, No Iterations 1
DILUPBiCGStab:  Solving for CO2, Initial residual = 0.00738084, Final residual = 7.6556e-05, No Iterations 1
DILUPBiCGStab:  Solving for h, Initial residual = 0.00733605, Final residual = 6.03979e-07, No Iterations 1
min/max(T) = 300, 721.645
GAMG:  Solving for p_rgh, Initial residual = 0.00270068, Final residual = 0.000229699, No Iterations 2
diagonal:  Solving for rho, Initial residual = 0, Final residual = 0, No Iterations 0
time step continuity errors : sum local = 8.13086e-08, global = 3.9123e-08, cumulative = 2.28349e-07
GAMG:  Solving for p_rgh, Initial residual = 0.000461241, Final residual = 8.8367e-07, No Iterations 6
diagonal:  Solving for rho, Initial residual = 0, Final residual = 0, No Iterations 0
time step continuity errors : sum local = 3.1697e-10, global = 1.60954e-10, cumulative = 2.2851e-07
DILUPBiCGStab:  Solving for k, Initial residual = 0.0229571, Final residual = 9.10596e-07, No Iterations 1
ExecutionTime = 50.27 s  ClockTime = 52 s

Courant Number mean: 0.000188753 max: 0.764343
deltaT = 0.0277778
Time = 2.27778

diagonal:  Solving for rho, Initial residual = 0, Final residual = 0, No Iterations 0
PIMPLE: iteration 1
DILUPBiCGStab:  Solving for Ux, Initial residual = 0.0372691, Final residual = 9.53012e-08, No Iterations 1
DILUPBiCGStab:  Solving for Uy, Initial residual = 0.00705325, Final residual = 2.24122e-08, No Iterations 1
DILUPBiCGStab:  Solving for Uz, Initial residual = 0.0372407, Final residual = 1.24807e-07, No Iterations 1
DILUPBiCGStab:  Solving for O2, Initial residual = 0.00452775, Final residual = 2.09579e-05, No Iterations 1
DILUPBiCGStab:  Solving for H2O, Initial residual = 0.00472291, Final residual = 2.17498e-05, No Iterations 1
DILUPBiCGStab:  Solving for CH4, Initial residual = 0.00284699, Final residual = 1.42187e-05, No Iterations 1
DILUPBiCGStab:  Solving for CO2, Initial residual = 0.00472291, Final residual = 2.17498e-05, No Iterations 1
DILUPBiCGStab:  Solving for h, Initial residual = 0.00469509, Final residual = 8.16956e-08, No Iterations 1
min/max(T) = 300, 738.115
GAMG:  Solving for p_rgh, Initial residual = 0.00227941, Final residual = 0.000138594, No Iterations 3
diagonal:  Solving for rho, Initial residual = 0, Final residual = 0, No Iterations 0
time step continuity errors : sum local = 2.03418e-08, global = 5.53944e-09, cumulative = 2.34049e-07
GAMG:  Solving for p_rgh, Initial residual = 0.000236037, Final residual = 5.52475e-07, No Iterations 6
diagonal:  Solving for rho, Initial residual = 0, Final residual = 0, No Iterations 0
time step continuity errors : sum local = 8.71667e-11, global = -6.57958e-12, cumulative = 2.34043e-07
DILUPBiCGStab:  Solving for k, Initial residual = 0.01218, Final residual = 1.32578e-07, No Iterations 1
ExecutionTime = 51.63 s  ClockTime = 53 s

Courant Number mean: 0.000131665 max: 0.505298
deltaT = 0.037037
Time = 2.31481

diagonal:  Solving for rho, Initial residual = 0, Final residual = 0, No Iterations 0
PIMPLE: iteration 1
DILUPBiCGStab:  Solving for Ux, Initial residual = 0.0615781, Final residual = 7.57378e-07, No Iterations 1
DILUPBiCGStab:  Solving for Uy, Initial residual = 0.0115017, Final residual = 1.21928e-07, No Iterations 1
DILUPBiCGStab:  Solving for Uz, Initial residual = 0.0602561, Final residual = 8.11284e-07, No Iterations 1
DILUPBiCGStab:  Solving for O2, Initial residual = 0.00591853, Final residual = 5.38555e-05, No Iterations 1
DILUPBiCGStab:  Solving for H2O, Initial residual = 0.00614557, Final residual = 5.5722e-05, No Iterations 1
DILUPBiCGStab:  Solving for CH4, Initial residual = 0.00384674, Final residual = 3.51569e-05, No Iterations 1
DILUPBiCGStab:  Solving for CO2, Initial residual = 0.00614557, Final residual = 5.5722e-05, No Iterations 1
DILUPBiCGStab:  Solving for h, Initial residual = 0.00612497, Final residual = 3.94722e-07, No Iterations 1
min/max(T) = 300, 764.72
GAMG:  Solving for p_rgh, Initial residual = 0.00393515, Final residual = 0.000316497, No Iterations 2
diagonal:  Solving for rho, Initial residual = 0, Final residual = 0, No Iterations 0
time step continuity errors : sum local = 8.90062e-08, global = 1.21642e-08, cumulative = 2.46207e-07
GAMG:  Solving for p_rgh, Initial residual = 0.000717469, Final residual = 6.01927e-07, No Iterations 7
diagonal:  Solving for rho, Initial residual = 0, Final residual = 0, No Iterations 0
time step continuity errors : sum local = 1.70986e-10, global = 3.30274e-11, cumulative = 2.4624e-07
DILUPBiCGStab:  Solving for k, Initial residual = 0.0149033, Final residual = 5.12387e-07, No Iterations 1
ExecutionTime = 52.99 s  ClockTime = 54 s

Courant Number mean: 0.000195711 max: 0.720985
deltaT = 0.026455
Time = 2.34127

diagonal:  Solving for rho, Initial residual = 0, Final residual = 0, No Iterations 0
PIMPLE: iteration 1
DILUPBiCGStab:  Solving for Ux, Initial residual = 0.0380843, Final residual = 1.43674e-07, No Iterations 1
DILUPBiCGStab:  Solving for Uy, Initial residual = 0.00727217, Final residual = 2.40705e-08, No Iterations 1
DILUPBiCGStab:  Solving for Uz, Initial residual = 0.0385085, Final residual = 1.75401e-07, No Iterations 1
DILUPBiCGStab:  Solving for O2, Initial residual = 0.00428122, Final residual = 2.14531e-05, No Iterations 1
DILUPBiCGStab:  Solving for H2O, Initial residual = 0.00442846, Final residual = 2.2114e-05, No Iterations 1
DILUPBiCGStab:  Solving for CH4, Initial residual = 0.00286692, Final residual = 1.46876e-05, No Iterations 1
DILUPBiCGStab:  Solving for CO2, Initial residual = 0.00442846, Final residual = 2.2114e-05, No Iterations 1
DILUPBiCGStab:  Solving for h, Initial residual = 0.00441335, Final residual = 9.48774e-08, No Iterations 1
min/max(T) = 300, 777.905
GAMG:  Solving for p_rgh, Initial residual = 0.00293253, Final residual = 0.000223574, No Iterations 2
diagonal:  Solving for rho, Initial residual = 0, Final residual = 0, No Iterations 0
time step continuity errors : sum local = 3.22744e-08, global = -7.13518e-09, cumulative = 2.39105e-07
GAMG:  Solving for p_rgh, Initial residual = 0.000345383, Final residual = 8.36299e-07, No Iterations 6
diagonal:  Solving for rho, Initial residual = 0, Final residual = 0, No Iterations 0
time step continuity errors : sum local = 1.20064e-10, global = -1.82355e-11, cumulative = 2.39086e-07
[...]
Time = 9.95526

diagonal:  Solving for rho, Initial residual = 0, Final residual = 0, No Iterations 0
PIMPLE: iteration 1
DILUPBiCGStab:  Solving for Ux, Initial residual = 0.00386211, Final residual = 1.27075e-08, No Iterations 1
DILUPBiCGStab:  Solving for Uy, Initial residual = 0.00150056, Final residual = 1.03737e-08, No Iterations 1
DILUPBiCGStab:  Solving for Uz, Initial residual = 0.00400689, Final residual = 9.03826e-09, No Iterations 1
DILUPBiCGStab:  Solving for O2, Initial residual = 0.000268873, Final residual = 3.27361e-07, No Iterations 1
DILUPBiCGStab:  Solving for H2O, Initial residual = 0.00026952, Final residual = 3.28075e-07, No Iterations 1
DILUPBiCGStab:  Solving for CH4, Initial residual = 8.04917e-06, Final residual = 5.53858e-08, No Iterations 1
DILUPBiCGStab:  Solving for CO2, Initial residual = 0.00026952, Final residual = 3.28075e-07, No Iterations 1
DILUPBiCGStab:  Solving for h, Initial residual = 0.000236438, Final residual = 2.11033e-07, No Iterations 1
min/max(T) = 300, 1383.03
GAMG:  Solving for p_rgh, Initial residual = 0.0536439, Final residual = 0.00306066, No Iterations 1
diagonal:  Solving for rho, Initial residual = 0, Final residual = 0, No Iterations 0
time step continuity errors : sum local = 8.84824e-07, global = 2.72357e-07, cumulative = 0.000151815
GAMG:  Solving for p_rgh, Initial residual = 0.00362967, Final residual = 7.61082e-07, No Iterations 6
diagonal:  Solving for rho, Initial residual = 0, Final residual = 0, No Iterations 0
time step continuity errors : sum local = 2.93481e-10, global = 1.55025e-10, cumulative = 0.000151815
DILUPBiCGStab:  Solving for k, Initial residual = 0.000357101, Final residual = 7.61275e-07, No Iterations 1
ExecutionTime = 1717.02 s  ClockTime = 1719 s

Courant Number mean: 0.0014845 max: 0.79895
deltaT = 0.00372853
Time = 9.95899

diagonal:  Solving for rho, Initial residual = 0, Final residual = 0, No Iterations 0
PIMPLE: iteration 1
DILUPBiCGStab:  Solving for Ux, Initial residual = 0.00221186, Final residual = 9.57311e-07, No Iterations 1
DILUPBiCGStab:  Solving for Uy, Initial residual = 0.000846035, Final residual = 3.04659e-07, No Iterations 1
DILUPBiCGStab:  Solving for Uz, Initial residual = 0.00226795, Final residual = 7.12178e-07, No Iterations 1
DILUPBiCGStab:  Solving for O2, Initial residual = 0.000161413, Final residual = 1.89617e-07, No Iterations 1
DILUPBiCGStab:  Solving for H2O, Initial residual = 0.000161801, Final residual = 1.90021e-07, No Iterations 1
DILUPBiCGStab:  Solving for CH4, Initial residual = 5.12363e-06, Final residual = 2.20501e-08, No Iterations 1
DILUPBiCGStab:  Solving for CO2, Initial residual = 0.000161801, Final residual = 1.90021e-07, No Iterations 1
DILUPBiCGStab:  Solving for h, Initial residual = 0.000141368, Final residual = 1.14316e-07, No Iterations 1
min/max(T) = 300, 1383.03
GAMG:  Solving for p_rgh, Initial residual = 0.0485452, Final residual = 0.00232736, No Iterations 1
diagonal:  Solving for rho, Initial residual = 0, Final residual = 0, No Iterations 0
time step continuity errors : sum local = 2.96715e-07, global = 1.81899e-08, cumulative = 0.000151833
GAMG:  Solving for p_rgh, Initial residual = 0.00271819, Final residual = 6.72558e-07, No Iterations 5
diagonal:  Solving for rho, Initial residual = 0, Final residual = 0, No Iterations 0
time step continuity errors : sum local = 2.63517e-10, global = 2.38191e-10, cumulative = 0.000151833
DILUPBiCGStab:  Solving for k, Initial residual = 0.000201144, Final residual = 3.20046e-07, No Iterations 1
ExecutionTime = 1718.38 s  ClockTime = 1720 s

Courant Number mean: 0.000865912 max: 0.387071
deltaT = 0.00512673
Time = 9.96411

diagonal:  Solving for rho, Initial residual = 0, Final residual = 0, No Iterations 0
PIMPLE: iteration 1
DILUPBiCGStab:  Solving for Ux, Initial residual = 0.00320455, Final residual = 3.7735e-09, No Iterations 1
DILUPBiCGStab:  Solving for Uy, Initial residual = 0.00125797, Final residual = 8.84553e-07, No Iterations 1
DILUPBiCGStab:  Solving for Uz, Initial residual = 0.00334868, Final residual = 3.69476e-09, No Iterations 1
DILUPBiCGStab:  Solving for O2, Initial residual = 0.000215143, Final residual = 3.1626e-07, No Iterations 1
DILUPBiCGStab:  Solving for H2O, Initial residual = 0.000215661, Final residual = 3.16928e-07, No Iterations 1
DILUPBiCGStab:  Solving for CH4, Initial residual = 6.80519e-06, Final residual = 4.07887e-08, No Iterations 1
DILUPBiCGStab:  Solving for CO2, Initial residual = 0.000215661, Final residual = 3.16928e-07, No Iterations 1
DILUPBiCGStab:  Solving for h, Initial residual = 0.000189258, Final residual = 1.89429e-07, No Iterations 1
min/max(T) = 300, 1383.06
GAMG:  Solving for p_rgh, Initial residual = 0.0541006, Final residual = 0.00338159, No Iterations 1
diagonal:  Solving for rho, Initial residual = 0, Final residual = 0, No Iterations 0
time step continuity errors : sum local = 6.75907e-07, global = 2.85103e-07, cumulative = 0.000152119
GAMG:  Solving for p_rgh, Initial residual = 0.00366818, Final residual = 9.29514e-07, No Iterations 6
diagonal:  Solving for rho, Initial residual = 0, Final residual = 0, No Iterations 0
time step continuity errors : sum local = 2.07134e-10, global = 7.62721e-11, cumulative = 0.000152119
DILUPBiCGStab:  Solving for k, Initial residual = 0.000276851, Final residual = 2.74181e-07, No Iterations 1
ExecutionTime = 1719.76 s  ClockTime = 1721 s

Courant Number mean: 0.00119111 max: 0.532122
deltaT = 0.00717742
Time = 9.97129

diagonal:  Solving for rho, Initial residual = 0, Final residual = 0, No Iterations 0
PIMPLE: iteration 1
DILUPBiCGStab:  Solving for Ux, Initial residual = 0.00418101, Final residual = 2.13002e-08, No Iterations 1
DILUPBiCGStab:  Solving for Uy, Initial residual = 0.0016025, Final residual = 7.88407e-09, No Iterations 1
DILUPBiCGStab:  Solving for Uz, Initial residual = 0.00424626, Final residual = 1.06997e-08, No Iterations 1
DILUPBiCGStab:  Solving for O2, Initial residual = 0.000302044, Final residual = 4.35674e-07, No Iterations 1
DILUPBiCGStab:  Solving for H2O, Initial residual = 0.000302771, Final residual = 4.36676e-07, No Iterations 1
DILUPBiCGStab:  Solving for CH4, Initial residual = 9.28317e-06, Final residual = 6.86133e-08, No Iterations 1
DILUPBiCGStab:  Solving for CO2, Initial residual = 0.000302771, Final residual = 4.36676e-07, No Iterations 1
DILUPBiCGStab:  Solving for h, Initial residual = 0.000265338, Final residual = 2.827e-07, No Iterations 1
min/max(T) = 300, 1383.12
GAMG:  Solving for p_rgh, Initial residual = 0.0498064, Final residual = 0.00280321, No Iterations 1
diagonal:  Solving for rho, Initial residual = 0, Final residual = 0, No Iterations 0
time step continuity errors : sum local = 9.84211e-07, global = 1.41878e-07, cumulative = 0.000152261
GAMG:  Solving for p_rgh, Initial residual = 0.00349768, Final residual = 3.92692e-07, No Iterations 6
diagonal:  Solving for rho, Initial residual = 0, Final residual = 0, No Iterations 0
time step continuity errors : sum local = 3.40529e-10, global = 3.10677e-10, cumulative = 0.000152261
DILUPBiCGStab:  Solving for k, Initial residual = 0.000399254, Final residual = 5.05126e-07, No Iterations 1
ExecutionTime = 1721.12 s  ClockTime = 1723 s

Courant Number mean: 0.00166919 max: 0.745029
deltaT = 0.00478494
Time = 9.97608

diagonal:  Solving for rho, Initial residual = 0, Final residual = 0, No Iterations 0
PIMPLE: iteration 1
DILUPBiCGStab:  Solving for Ux, Initial residual = 0.00279681, Final residual = 5.00193e-09, No Iterations 1
DILUPBiCGStab:  Solving for Uy, Initial residual = 0.00106686, Final residual = 5.42299e-07, No Iterations 1
DILUPBiCGStab:  Solving for Uz, Initial residual = 0.0028738, Final residual = 3.46093e-09, No Iterations 1
DILUPBiCGStab:  Solving for O2, Initial residual = 0.000205878, Final residual = 1.07762e-07, No Iterations 1
DILUPBiCGStab:  Solving for H2O, Initial residual = 0.000206375, Final residual = 1.08017e-07, No Iterations 1
DILUPBiCGStab:  Solving for CH4, Initial residual = 7.02981e-06, Final residual = 3.10052e-08, No Iterations 1
DILUPBiCGStab:  Solving for CO2, Initial residual = 0.000206375, Final residual = 1.08017e-07, No Iterations 1
Radiation solver iter: 0
GAMG:  Solving for ILambda_0_0, Initial residual = 0.00127297, Final residual = 3.25711e-07, No Iterations 1
GAMG:  Solving for ILambda_1_0, Initial residual = 0.00104866, Final residual = 2.0146e-07, No Iterations 1
GAMG:  Solving for ILambda_2_0, Initial residual = 0.00256519, Final residual = 0.000129226, No Iterations 1
GAMG:  Solving for ILambda_3_0, Initial residual = 0.00558067, Final residual = 0.000552126, No Iterations 1
GAMG:  Solving for ILambda_4_0, Initial residual = 0.00547969, Final residual = 0.000486949, No Iterations 1
GAMG:  Solving for ILambda_5_0, Initial residual = 0.00254947, Final residual = 0.000137167, No Iterations 1
GAMG:  Solving for ILambda_6_0, Initial residual = 0.00104818, Final residual = 5.01849e-05, No Iterations 1
GAMG:  Solving for ILambda_7_0, Initial residual = 0.00126266, Final residual = 2.86085e-05, No Iterations 1
GAMG:  Solving for ILambda_8_0, Initial residual = 0.00126383, Final residual = 3.1836e-05, No Iterations 1
GAMG:  Solving for ILambda_9_0, Initial residual = 0.00105164, Final residual = 3.80646e-05, No Iterations 1
GAMG:  Solving for ILambda_10_0, Initial residual = 0.00256499, Final residual = 0.000162934, No Iterations 1
GAMG:  Solving for ILambda_11_0, Initial residual = 0.00558644, Final residual = 0.000510468, No Iterations 1
GAMG:  Solving for ILambda_12_0, Initial residual = 0.00513571, Final residual = 5.93391e-06, No Iterations 1
GAMG:  Solving for ILambda_13_0, Initial residual = 0.00248734, Final residual = 1.86774e-06, No Iterations 1
GAMG:  Solving for ILambda_14_0, Initial residual = 0.00105273, Final residual = 6.39556e-05, No Iterations 1
GAMG:  Solving for ILambda_15_0, Initial residual = 0.00126539, Final residual = 4.85535e-05, No Iterations 1
DILUPBiCGStab:  Solving for h, Initial residual = 0.0001803, Final residual = 8.72735e-08, No Iterations 1
min/max(T) = 300, 1383.17
GAMG:  Solving for p_rgh, Initial residual = 0.0539735, Final residual = 0.00286343, No Iterations 1
diagonal:  Solving for rho, Initial residual = 0, Final residual = 0, No Iterations 0
time step continuity errors : sum local = 5.19863e-07, global = -2.43376e-08, cumulative = 0.000152236
GAMG:  Solving for p_rgh, Initial residual = 0.00338414, Final residual = 4.85941e-07, No Iterations 6
diagonal:  Solving for rho, Initial residual = 0, Final residual = 0, No Iterations 0
time step continuity errors : sum local = 1.92168e-10, global = 8.75116e-11, cumulative = 0.000152237
DILUPBiCGStab:  Solving for k, Initial residual = 0.000257749, Final residual = 2.02349e-07, No Iterations 1
ExecutionTime = 1723.17 s  ClockTime = 1724 s

Courant Number mean: 0.00111289 max: 0.49614
deltaT = 0.00598118
Time = 9.98206

diagonal:  Solving for rho, Initial residual = 0, Final residual = 0, No Iterations 0
PIMPLE: iteration 1
DILUPBiCGStab:  Solving for Ux, Initial residual = 0.00383484, Final residual = 1.21739e-08, No Iterations 1
DILUPBiCGStab:  Solving for Uy, Initial residual = 0.00151973, Final residual = 6.4661e-09, No Iterations 1
DILUPBiCGStab:  Solving for Uz, Initial residual = 0.00394252, Final residual = 1.21038e-08, No Iterations 1
DILUPBiCGStab:  Solving for O2, Initial residual = 0.000252294, Final residual = 3.59624e-07, No Iterations 1
DILUPBiCGStab:  Solving for H2O, Initial residual = 0.000252902, Final residual = 3.60509e-07, No Iterations 1
DILUPBiCGStab:  Solving for CH4, Initial residual = 7.81542e-06, Final residual = 6.10293e-08, No Iterations 1
DILUPBiCGStab:  Solving for CO2, Initial residual = 0.000252902, Final residual = 3.60509e-07, No Iterations 1
DILUPBiCGStab:  Solving for h, Initial residual = 0.000221639, Final residual = 2.90084e-07, No Iterations 1
min/max(T) = 300, 1383.23
GAMG:  Solving for p_rgh, Initial residual = 0.0613163, Final residual = 0.00377362, No Iterations 1
diagonal:  Solving for rho, Initial residual = 0, Final residual = 0, No Iterations 0
time step continuity errors : sum local = 9.60144e-07, global = 4.08354e-07, cumulative = 0.000152645
GAMG:  Solving for p_rgh, Initial residual = 0.00412215, Final residual = 7.24407e-07, No Iterations 7
diagonal:  Solving for rho, Initial residual = 0, Final residual = 0, No Iterations 0
time step continuity errors : sum local = 2.55651e-10, global = -1.54264e-10, cumulative = 0.000152645
DILUPBiCGStab:  Solving for k, Initial residual = 0.000328745, Final residual = 3.73581e-07, No Iterations 1
ExecutionTime = 1724.56 s  ClockTime = 1726 s

Courant Number mean: 0.00139178 max: 0.708848
deltaT = 0.00358871
Time = 9.98565

diagonal:  Solving for rho, Initial residual = 0, Final residual = 0, No Iterations 0
PIMPLE: iteration 1
DILUPBiCGStab:  Solving for Ux, Initial residual = 0.00214289, Final residual = 8.78823e-07, No Iterations 1
DILUPBiCGStab:  Solving for Uy, Initial residual = 0.000860902, Final residual = 3.21341e-07, No Iterations 1
DILUPBiCGStab:  Solving for Uz, Initial residual = 0.00225985, Final residual = 6.64367e-07, No Iterations 1
DILUPBiCGStab:  Solving for O2, Initial residual = 0.00015455, Final residual = 1.69587e-07, No Iterations 1
DILUPBiCGStab:  Solving for H2O, Initial residual = 0.00015492, Final residual = 1.69879e-07, No Iterations 1
DILUPBiCGStab:  Solving for CH4, Initial residual = 4.19572e-06, Final residual = 2.41972e-08, No Iterations 1
DILUPBiCGStab:  Solving for CO2, Initial residual = 0.00015492, Final residual = 1.69879e-07, No Iterations 1
DILUPBiCGStab:  Solving for h, Initial residual = 0.000135177, Final residual = 6.99113e-08, No Iterations 1
min/max(T) = 300, 1383.25
GAMG:  Solving for p_rgh, Initial residual = 0.049091, Final residual = 0.00231048, No Iterations 1
diagonal:  Solving for rho, Initial residual = 0, Final residual = 0, No Iterations 0
time step continuity errors : sum local = 2.75167e-07, global = 3.41227e-08, cumulative = 0.000152679
GAMG:  Solving for p_rgh, Initial residual = 0.00256751, Final residual = 4.63166e-07, No Iterations 5
diagonal:  Solving for rho, Initial residual = 0, Final residual = 0, No Iterations 0
time step continuity errors : sum local = 4.18463e-10, global = 4.09723e-10, cumulative = 0.000152679
DILUPBiCGStab:  Solving for k, Initial residual = 0.000188755, Final residual = 4.11075e-07, No Iterations 1
ExecutionTime = 1725.9 s  ClockTime = 1727 s

Courant Number mean: 0.000834893 max: 0.372403
deltaT = 0.00478494
Time = 9.99043

diagonal:  Solving for rho, Initial residual = 0, Final residual = 0, No Iterations 0
PIMPLE: iteration 1
DILUPBiCGStab:  Solving for Ux, Initial residual = 0.00301682, Final residual = 4.68769e-09, No Iterations 1
DILUPBiCGStab:  Solving for Uy, Initial residual = 0.00117362, Final residual = 5.67297e-07, No Iterations 1
DILUPBiCGStab:  Solving for Uz, Initial residual = 0.00327231, Final residual = 4.4237e-09, No Iterations 1
DILUPBiCGStab:  Solving for O2, Initial residual = 0.000198069, Final residual = 1.40379e-07, No Iterations 1
DILUPBiCGStab:  Solving for H2O, Initial residual = 0.000198547, Final residual = 1.40685e-07, No Iterations 1
DILUPBiCGStab:  Solving for CH4, Initial residual = 6.25718e-06, Final residual = 3.88762e-08, No Iterations 1
DILUPBiCGStab:  Solving for CO2, Initial residual = 0.000198547, Final residual = 1.40685e-07, No Iterations 1
DILUPBiCGStab:  Solving for h, Initial residual = 0.000174419, Final residual = 1.00758e-07, No Iterations 1
min/max(T) = 300, 1383.29
GAMG:  Solving for p_rgh, Initial residual = 0.0513776, Final residual = 0.00326671, No Iterations 1
diagonal:  Solving for rho, Initial residual = 0, Final residual = 0, No Iterations 0
time step continuity errors : sum local = 5.79955e-07, global = 2.42106e-07, cumulative = 0.000152921
GAMG:  Solving for p_rgh, Initial residual = 0.00352485, Final residual = 4.63163e-07, No Iterations 6
diagonal:  Solving for rho, Initial residual = 0, Final residual = 0, No Iterations 0
time step continuity errors : sum local = 1.15874e-10, global = 5.7093e-11, cumulative = 0.000152921
DILUPBiCGStab:  Solving for k, Initial residual = 0.000249209, Final residual = 4.75337e-07, No Iterations 1
ExecutionTime = 1727.32 s  ClockTime = 1728 s

Courant Number mean: 0.0011136 max: 0.496809
deltaT = 0.00478494
Time = 9.99522

diagonal:  Solving for rho, Initial residual = 0, Final residual = 0, No Iterations 0
PIMPLE: iteration 1
DILUPBiCGStab:  Solving for Ux, Initial residual = 0.00278708, Final residual = 9.27786e-09, No Iterations 1
DILUPBiCGStab:  Solving for Uy, Initial residual = 0.00102475, Final residual = 7.48099e-07, No Iterations 1
DILUPBiCGStab:  Solving for Uz, Initial residual = 0.00287192, Final residual = 5.53439e-09, No Iterations 1
DILUPBiCGStab:  Solving for O2, Initial residual = 0.000200913, Final residual = 1.81443e-07, No Iterations 1
DILUPBiCGStab:  Solving for H2O, Initial residual = 0.000201399, Final residual = 1.81784e-07, No Iterations 1
DILUPBiCGStab:  Solving for CH4, Initial residual = 7.03846e-06, Final residual = 3.62991e-08, No Iterations 1
DILUPBiCGStab:  Solving for CO2, Initial residual = 0.000201399, Final residual = 1.81784e-07, No Iterations 1
DILUPBiCGStab:  Solving for h, Initial residual = 0.000176257, Final residual = 1.07603e-07, No Iterations 1
min/max(T) = 300, 1383.32
GAMG:  Solving for p_rgh, Initial residual = 0.041812, Final residual = 0.00252486, No Iterations 1
diagonal:  Solving for rho, Initial residual = 0, Final residual = 0, No Iterations 0
time step continuity errors : sum local = 4.53948e-07, global = 3.7767e-08, cumulative = 0.000152959
GAMG:  Solving for p_rgh, Initial residual = 0.00293958, Final residual = 4.40679e-07, No Iterations 6
diagonal:  Solving for rho, Initial residual = 0, Final residual = 0, No Iterations 0
time step continuity errors : sum local = 2.81461e-10, global = 2.69973e-10, cumulative = 0.000152959
DILUPBiCGStab:  Solving for k, Initial residual = 0.000250837, Final residual = 3.93297e-07, No Iterations 1
ExecutionTime = 1728.72 s  ClockTime = 1730 s

Courant Number mean: 0.00111395 max: 0.4966
deltaT = 0.00478494
Time = 10

diagonal:  Solving for rho, Initial residual = 0, Final residual = 0, No Iterations 0
PIMPLE: iteration 1
DILUPBiCGStab:  Solving for Ux, Initial residual = 0.00279292, Final residual = 3.30367e-09, No Iterations 1
DILUPBiCGStab:  Solving for Uy, Initial residual = 0.00102764, Final residual = 5.47896e-07, No Iterations 1
DILUPBiCGStab:  Solving for Uz, Initial residual = 0.00290122, Final residual = 2.95179e-09, No Iterations 1
DILUPBiCGStab:  Solving for O2, Initial residual = 0.000198032, Final residual = 1.04852e-07, No Iterations 1
DILUPBiCGStab:  Solving for H2O, Initial residual = 0.000198508, Final residual = 1.05125e-07, No Iterations 1
DILUPBiCGStab:  Solving for CH4, Initial residual = 5.86283e-06, Final residual = 3.06375e-08, No Iterations 1
DILUPBiCGStab:  Solving for CO2, Initial residual = 0.000198508, Final residual = 1.05125e-07, No Iterations 1
DILUPBiCGStab:  Solving for h, Initial residual = 0.000173903, Final residual = 8.45508e-08, No Iterations 1
min/max(T) = 300, 1383.36
GAMG:  Solving for p_rgh, Initial residual = 0.0433903, Final residual = 0.00261977, No Iterations 1
diagonal:  Solving for rho, Initial residual = 0, Final residual = 0, No Iterations 0
time step continuity errors : sum local = 4.76871e-07, global = 1.427e-07, cumulative = 0.000153102
GAMG:  Solving for p_rgh, Initial residual = 0.00301302, Final residual = 4.73716e-07, No Iterations 6
diagonal:  Solving for rho, Initial residual = 0, Final residual = 0, No Iterations 0
time step continuity errors : sum local = 1.659e-10, global = 3.09397e-11, cumulative = 0.000153102
DILUPBiCGStab:  Solving for k, Initial residual = 0.000247414, Final residual = 1.52433e-07, No Iterations 1
ExecutionTime = 1730.25 s  ClockTime = 1731 s

End

Finalising parallel run
