/*---------------------------------------------------------------------------*\
| =========                 |                                                 |
| \\      /  F ield         | OpenFOAM: The Open Source CFD Toolbox           |
|  \\    /   O peration     | Version:  2406                                  |
|   \\  /    A nd           | Website:  www.openfoam.com                      |
|    \\/     M anipulation  |                                                 |
\*---------------------------------------------------------------------------*/
Build  : _9bfe8264-20241212 OPENFOAM=2406 patch=241212 version=2406
Arch   : "LSB;label=32;scalar=64"
Exec   : fireFoam -parallel
Date   : Feb 17 2025
Time   : 19:35:39
Host   : DESKTOP-DSF3BUF
PID    : 274348
I/O    : uncollated
Case   : /home/nathan/OpenFOAM/nathan-v2406/run/tutorials/combustion/fireFoam/LES/cenario2
nProcs : 4
Hosts  :
(
    (DESKTOP-DSF3BUF 4)
)
Pstream initialized with:
    floatTransfer      : false
    maxCommsSize       : 0
    nProcsSimpleSum    : 0
    nonBlockingExchange: 0 (tuning: 0)
    exchange algorithm : 0
    commsType          : nonBlocking
    polling iterations : 0
trapFpe: Floating point exception trapping enabled (FOAM_SIGFPE).
fileModificationChecking : Monitoring run-time modified files using timeStampMaster (fileModificationSkew 5, maxFileModificationPolls 20)
allowSystemOperations : Allowing user-supplied system call operations

// * * * * * * * * * * * * * * * * * * * * * * * * * * * * * * * * * * * * * //
Create time

Create mesh for time = 0


PIMPLE: Operating solver in PISO mode

Reading thermophysical properties

Selecting thermodynamics package 
{
    type            hePsiThermo;
    mixture         singleStepReactingMixture;
    transport       sutherland;
    thermo          janaf;
    energy          sensibleEnthalpy;
    equationOfState perfectGas;
    specie          specie;
}

Selecting chemistryReader foamChemistryReader
    elements not defined in "/home/nathan/OpenFOAM/nathan-v2406/run/tutorials/combustion/fireFoam/LES/cenario2/constant/reactions"
--> FOAM Warning : 
    From void Foam::multiComponentMixture<ThermoType>::correctMassFractions() [with ThermoType = Foam::sutherlandTransport<Foam::species::thermo<Foam::janafThermo<Foam::perfectGas<Foam::specie> >, Foam::sensibleEnthalpy> >]
    in file lnInclude/multiComponentMixture.C at line 78
    Sum of mass fractions is different from one for species 5(O2 H2O CH4 CO2 N2)
    Max of mass fraction sum differs from 1 by 9
Fuel heat of combustion :5.00312e+07
stoichiometric air-fuel ratio :17.0854
stoichiometric oxygen-fuel ratio :3.98918
Maximum products mass concentrations:
    H2O: 0.124183
    CO2: 0.151685
    N2: 0.724132
Creating component thermo properties:
    multi-component carrier - 5 species
    no liquid components
    no solid components
Creating field rho


Reading field U

Reading/calculating face flux field phi

No MRF models present

Creating turbulence model

Selecting turbulence model type LES
Selecting LES turbulence model kEqn
Selecting LES delta type cubeRootVol
--> FOAM Warning : 
    From void Foam::LESModels::cubeRootVolDelta::calcDelta()
    in file LES/LESdeltas/cubeRootVolDelta/cubeRootVolDelta.C at line 58
    Case is 2D, LES is not strictly applicable

kEqnCoeffs
{
    ck              0.07;
    Ck              0.094;
}

Creating combustion model

Selecting combustion model EDM
Combustion mode: explicit

Reading g

Reading hRef
Calculating field g.h


Reading pRef
GAMG:  Solving for ph_rgh, Initial residual = 1, Final residual = 0.0780693, No Iterations 5
Hydrostatic pressure variation 5.33817
GAMG:  Solving for ph_rgh, Initial residual = 0.00123573, Final residual = 8.16964e-05, No Iterations 3
Hydrostatic pressure variation 5.35671
GAMG:  Solving for ph_rgh, Initial residual = 7.85851e-05, Final residual = 6.94704e-06, No Iterations 9
Hydrostatic pressure variation 5.36056
GAMG:  Solving for ph_rgh, Initial residual = 6.86674e-06, Final residual = 9.26292e-07, No Iterations 14
Hydrostatic pressure variation 5.36105
GAMG:  Solving for ph_rgh, Initial residual = 9.27103e-07, Final residual = 9.27103e-07, No Iterations 0
Hydrostatic pressure variation 5.36105
Creating field dpdt

Creating field kinetic energy K


Constructing reacting cloud
Cloud source terms will be reset
Constructing particle injection models
Selecting injection model none

Constructing surface film model
Selecting surfaceFilmModel none
Creating pyrolysis model
Selecting pyrolysisModel none
Selecting radiationModel fvDOM
Selecting absorptionEmissionModel greyMeanAbsorptionEmission
Selecting scatterModel none
Selecting sootModel none
fvDOM : Allocated 8 rays with average orientation:
	I0 : dAve : 	(0.460076 5.88954e-33 -1.11072) : omega : 	1.5708 : d : 	(0.382683 6.12323e-17 -0.92388)
	I1 : dAve : 	(1.11072 5.88954e-33 -0.460076) : omega : 	1.5708 : d : 	(0.92388 6.12323e-17 -0.382683)
	I2 : dAve : 	(1.11072 5.88954e-33 0.460076) : omega : 	1.5708 : d : 	(0.92388 6.12323e-17 0.382683)
	I3 : dAve : 	(0.460076 5.88954e-33 1.11072) : omega : 	1.5708 : d : 	(0.382683 6.12323e-17 0.92388)
	I4 : dAve : 	(-0.460076 5.88954e-33 1.11072) : omega : 	1.5708 : d : 	(-0.382683 6.12323e-17 0.92388)
	I5 : dAve : 	(-1.11072 5.88954e-33 0.460076) : omega : 	1.5708 : d : 	(-0.92388 6.12323e-17 0.382683)
	I6 : dAve : 	(-1.11072 5.88954e-33 -0.460076) : omega : 	1.5708 : d : 	(-0.92388 6.12323e-17 -0.382683)
	I7 : dAve : 	(-0.460076 5.88954e-33 -1.11072) : omega : 	1.5708 : d : 	(-0.382683 6.12323e-17 -0.92388)
Total omega : 12.5664

No finite volume options present
Courant Number mean: 3.82741e-11 max: 1.08421e-05

Starting time loop

Courant Number mean: 3.82741e-11 max: 1.08421e-05
deltaT = 0.00144092
Time = 0.00144092

diagonal:  Solving for rho, Initial residual = 0, Final residual = 0, No Iterations 0
PIMPLE: iteration 1
DILUPBiCGStab:  Solving for Ux, Initial residual = 1, Final residual = 2.3165e-07, No Iterations 1
DILUPBiCGStab:  Solving for Uz, Initial residual = 1, Final residual = 1.02419e-07, No Iterations 1
DILUPBiCGStab:  Solving for O2, Initial residual = 0.994779, Final residual = 3.29325e-12, No Iterations 1
DILUPBiCGStab:  Solving for H2O, Initial residual = 0, Final residual = 0, No Iterations 0
DILUPBiCGStab:  Solving for CH4, Initial residual = 1, Final residual = 3.06189e-12, No Iterations 1
DILUPBiCGStab:  Solving for CO2, Initial residual = 0, Final residual = 0, No Iterations 0
Radiation solver iter: 0
Selecting boundary radiation Model: lookup
Selecting boundary radiation Model: lookup
Selecting boundary radiation Model: lookup
Selecting boundary radiation Model: lookup
Selecting boundary radiation Model: lookup
Selecting boundary radiation Model: lookup
Selecting boundary radiation Model: lookup
GAMG:  Solving for ILambda_0_0, Initial residual = 1, Final residual = 7.2644e-16, No Iterations 1
GAMG:  Solving for ILambda_1_0, Initial residual = 1, Final residual = 6.90172e-16, No Iterations 1
GAMG:  Solving for ILambda_2_0, Initial residual = 1, Final residual = 6.42646e-16, No Iterations 1
GAMG:  Solving for ILambda_3_0, Initial residual = 1, Final residual = 6.79127e-16, No Iterations 1
GAMG:  Solving for ILambda_4_0, Initial residual = 1, Final residual = 7.34401e-16, No Iterations 1
GAMG:  Solving for ILambda_5_0, Initial residual = 1, Final residual = 6.82574e-16, No Iterations 1
GAMG:  Solving for ILambda_6_0, Initial residual = 1, Final residual = 6.3922e-16, No Iterations 1
GAMG:  Solving for ILambda_7_0, Initial residual = 1, Final residual = 6.94312e-16, No Iterations 1
DILUPBiCGStab:  Solving for h, Initial residual = 0.967121, Final residual = 3.16653e-12, No Iterations 1
min/max(T) = 299.999, 300
GAMG:  Solving for p_rgh, Initial residual = 6.85814e-05, Final residual = 1.68002e-06, No Iterations 2
diagonal:  Solving for rho, Initial residual = 0, Final residual = 0, No Iterations 0
time step continuity errors : sum local = 9.30655e-10, global = 9.27652e-10, cumulative = 9.27652e-10
GAMG:  Solving for p_rgh, Initial residual = 1.81682e-06, Final residual = 2.05178e-07, No Iterations 1
diagonal:  Solving for rho, Initial residual = 0, Final residual = 0, No Iterations 0
time step continuity errors : sum local = 9.28258e-10, global = 9.27889e-10, cumulative = 1.85554e-09
DILUPBiCGStab:  Solving for k, Initial residual = 1, Final residual = 1.20302e-07, No Iterations 1
ExecutionTime = 1.85 s  ClockTime = 2 s

Courant Number mean: 3.35194e-10 max: 3.12305e-05
deltaT = 0.0020717
Time = 0.00351262

diagonal:  Solving for rho, Initial residual = 0, Final residual = 0, No Iterations 0
PIMPLE: iteration 1
DILUPBiCGStab:  Solving for Ux, Initial residual = 0.394965, Final residual = 2.59235e-08, No Iterations 1
DILUPBiCGStab:  Solving for Uz, Initial residual = 0.415312, Final residual = 4.22201e-08, No Iterations 1
DILUPBiCGStab:  Solving for O2, Initial residual = 0.106592, Final residual = 1.16275e-11, No Iterations 1
DILUPBiCGStab:  Solving for H2O, Initial residual = 1, Final residual = 1.09098e-10, No Iterations 1
DILUPBiCGStab:  Solving for CH4, Initial residual = 0.101995, Final residual = 1.10975e-11, No Iterations 1
DILUPBiCGStab:  Solving for CO2, Initial residual = 1, Final residual = 1.09098e-10, No Iterations 1
DILUPBiCGStab:  Solving for h, Initial residual = 0.921066, Final residual = 1.38542e-08, No Iterations 1
min/max(T) = 300, 300.007
GAMG:  Solving for p_rgh, Initial residual = 0.000828806, Final residual = 5.12591e-05, No Iterations 2
diagonal:  Solving for rho, Initial residual = 0, Final residual = 0, No Iterations 0
time step continuity errors : sum local = 1.0041e-10, global = 8.69458e-13, cumulative = 1.85641e-09
GAMG:  Solving for p_rgh, Initial residual = 5.11975e-05, Final residual = 3.65244e-07, No Iterations 3
diagonal:  Solving for rho, Initial residual = 0, Final residual = 0, No Iterations 0
time step continuity errors : sum local = 7.15252e-13, global = -2.68768e-14, cumulative = 1.85638e-09
DILUPBiCGStab:  Solving for k, Initial residual = 0.895956, Final residual = 1.54961e-07, No Iterations 1
ExecutionTime = 2.61 s  ClockTime = 3 s

Courant Number mean: 6.7823e-09 max: 0.000294423
deltaT = 0.0029835
Time = 0.00649612

diagonal:  Solving for rho, Initial residual = 0, Final residual = 0, No Iterations 0
PIMPLE: iteration 1
DILUPBiCGStab:  Solving for Ux, Initial residual = 0.399137, Final residual = 3.30575e-08, No Iterations 1
DILUPBiCGStab:  Solving for Uz, Initial residual = 0.405488, Final residual = 5.71777e-08, No Iterations 1
DILUPBiCGStab:  Solving for O2, Initial residual = 0.0682193, Final residual = 1.40463e-09, No Iterations 1
DILUPBiCGStab:  Solving for H2O, Initial residual = 0.216955, Final residual = 4.47046e-09, No Iterations 1
DILUPBiCGStab:  Solving for CH4, Initial residual = 0.0628883, Final residual = 1.29473e-09, No Iterations 1
DILUPBiCGStab:  Solving for CO2, Initial residual = 0.216955, Final residual = 4.47046e-09, No Iterations 1
DILUPBiCGStab:  Solving for h, Initial residual = 0.366769, Final residual = 2.90294e-08, No Iterations 1
min/max(T) = 300, 300.041
GAMG:  Solving for p_rgh, Initial residual = 0.00195223, Final residual = 9.36977e-05, No Iterations 2
diagonal:  Solving for rho, Initial residual = 0, Final residual = 0, No Iterations 0
time step continuity errors : sum local = 2.48387e-10, global = 9.70162e-11, cumulative = 1.9534e-09
GAMG:  Solving for p_rgh, Initial residual = 9.37047e-05, Final residual = 9.49685e-07, No Iterations 3
diagonal:  Solving for rho, Initial residual = 0, Final residual = 0, No Iterations 0
time step continuity errors : sum local = 2.51633e-12, global = -1.86226e-13, cumulative = 1.95321e-09
DILUPBiCGStab:  Solving for k, Initial residual = 0.645921, Final residual = 1.60873e-07, No Iterations 1
ExecutionTime = 3.42 s  ClockTime = 3 s

Courant Number mean: 2.84738e-08 max: 0.000618944
deltaT = 0.00428234
Time = 0.0107785

diagonal:  Solving for rho, Initial residual = 0, Final residual = 0, No Iterations 0
PIMPLE: iteration 1
DILUPBiCGStab:  Solving for Ux, Initial residual = 0.329409, Final residual = 6.77575e-08, No Iterations 1
DILUPBiCGStab:  Solving for Uz, Initial residual = 0.341446, Final residual = 5.67627e-08, No Iterations 1
DILUPBiCGStab:  Solving for O2, Initial residual = 0.0562782, Final residual = 5.78847e-09, No Iterations 1
DILUPBiCGStab:  Solving for H2O, Initial residual = 0.140122, Final residual = 1.44203e-08, No Iterations 1
DILUPBiCGStab:  Solving for CH4, Initial residual = 0.049503, Final residual = 5.09095e-09, No Iterations 1
DILUPBiCGStab:  Solving for CO2, Initial residual = 0.140122, Final residual = 1.44203e-08, No Iterations 1
DILUPBiCGStab:  Solving for h, Initial residual = 0.13044, Final residual = 2.90757e-08, No Iterations 1
min/max(T) = 300, 300.104
GAMG:  Solving for p_rgh, Initial residual = 0.00245772, Final residual = 0.000157039, No Iterations 2
diagonal:  Solving for rho, Initial residual = 0, Final residual = 0, No Iterations 0
time step continuity errors : sum local = 6.38097e-10, global = 2.2172e-10, cumulative = 2.17493e-09
GAMG:  Solving for p_rgh, Initial residual = 0.000157082, Final residual = 6.37493e-07, No Iterations 4
diagonal:  Solving for rho, Initial residual = 0, Final residual = 0, No Iterations 0
time step continuity errors : sum local = 2.62214e-12, global = 2.65134e-13, cumulative = 2.1752e-09
DILUPBiCGStab:  Solving for k, Initial residual = 0.511975, Final residual = 1.83005e-07, No Iterations 1
ExecutionTime = 4.17 s  ClockTime = 4 s

Courant Number mean: 8.51591e-08 max: 0.00100206
deltaT = 0.00614423
Time = 0.0169227

diagonal:  Solving for rho, Initial residual = 0, Final residual = 0, No Iterations 0
PIMPLE: iteration 1
DILUPBiCGStab:  Solving for Ux, Initial residual = 0.280254, Final residual = 9.62542e-08, No Iterations 1
DILUPBiCGStab:  Solving for Uz, Initial residual = 0.289708, Final residual = 3.93559e-08, No Iterations 1
DILUPBiCGStab:  Solving for O2, Initial residual = 0.0518678, Final residual = 1.39411e-08, No Iterations 1
DILUPBiCGStab:  Solving for H2O, Initial residual = 0.112223, Final residual = 3.01738e-08, No Iterations 1
DILUPBiCGStab:  Solving for CH4, Initial residual = 0.0430815, Final residual = 1.1578e-08, No Iterations 1
DILUPBiCGStab:  Solving for CO2, Initial residual = 0.112223, Final residual = 3.01738e-08, No Iterations 1
DILUPBiCGStab:  Solving for h, Initial residual = 0.0971082, Final residual = 4.07928e-08, No Iterations 1
min/max(T) = 300, 300.256
GAMG:  Solving for p_rgh, Initial residual = 0.00247329, Final residual = 0.000218358, No Iterations 2
diagonal:  Solving for rho, Initial residual = 0, Final residual = 0, No Iterations 0
time step continuity errors : sum local = 1.52142e-09, global = 7.59758e-10, cumulative = 2.93496e-09
GAMG:  Solving for p_rgh, Initial residual = 0.000218648, Final residual = 6.00498e-07, No Iterations 5
diagonal:  Solving for rho, Initial residual = 0, Final residual = 0, No Iterations 0
time step continuity errors : sum local = 4.16067e-12, global = -1.21777e-12, cumulative = 2.93374e-09
DILUPBiCGStab:  Solving for k, Initial residual = 0.44334, Final residual = 2.27348e-07, No Iterations 1
ExecutionTime = 4.93 s  ClockTime = 5 s

Courant Number mean: 2.21657e-07 max: 0.00162849
deltaT = 0.00885655
Time = 0.0257792

diagonal:  Solving for rho, Initial residual = 0, Final residual = 0, No Iterations 0
PIMPLE: iteration 1
DILUPBiCGStab:  Solving for Ux, Initial residual = 0.257924, Final residual = 1.18616e-07, No Iterations 1
DILUPBiCGStab:  Solving for Uz, Initial residual = 0.261464, Final residual = 3.39033e-08, No Iterations 1
DILUPBiCGStab:  Solving for O2, Initial residual = 0.05108, Final residual = 3.5623e-08, No Iterations 1
DILUPBiCGStab:  Solving for H2O, Initial residual = 0.0988246, Final residual = 6.89426e-08, No Iterations 1
DILUPBiCGStab:  Solving for CH4, Initial residual = 0.0396888, Final residual = 2.76734e-08, No Iterations 1
DILUPBiCGStab:  Solving for CO2, Initial residual = 0.0988246, Final residual = 6.89426e-08, No Iterations 1
DILUPBiCGStab:  Solving for h, Initial residual = 0.0878578, Final residual = 6.77064e-08, No Iterations 1
min/max(T) = 300, 300.608
GAMG:  Solving for p_rgh, Initial residual = 0.00230533, Final residual = 0.000105166, No Iterations 3
diagonal:  Solving for rho, Initial residual = 0, Final residual = 0, No Iterations 0
time step continuity errors : sum local = 1.37152e-09, global = -7.42147e-10, cumulative = 2.19159e-09
GAMG:  Solving for p_rgh, Initial residual = 0.000105139, Final residual = 4.11071e-07, No Iterations 6
diagonal:  Solving for rho, Initial residual = 0, Final residual = 0, No Iterations 0
time step continuity errors : sum local = 5.26085e-12, global = -2.57317e-12, cumulative = 2.18902e-09
DILUPBiCGStab:  Solving for k, Initial residual = 0.406445, Final residual = 3.00473e-07, No Iterations 1
ExecutionTime = 5.72 s  ClockTime = 6 s

Courant Number mean: 5.23568e-07 max: 0.00274909
deltaT = 0.0126522
Time = 0.0384315

diagonal:  Solving for rho, Initial residual = 0, Final residual = 0, No Iterations 0
PIMPLE: iteration 1
DILUPBiCGStab:  Solving for Ux, Initial residual = 0.23783, Final residual = 1.69766e-07, No Iterations 1
DILUPBiCGStab:  Solving for Uz, Initial residual = 0.244032, Final residual = 5.56011e-08, No Iterations 1
DILUPBiCGStab:  Solving for O2, Initial residual = 0.0517242, Final residual = 9.95836e-08, No Iterations 1
DILUPBiCGStab:  Solving for H2O, Initial residual = 0.0904135, Final residual = 1.7415e-07, No Iterations 1
DILUPBiCGStab:  Solving for CH4, Initial residual = 0.0373306, Final residual = 7.18428e-08, No Iterations 1
DILUPBiCGStab:  Solving for CO2, Initial residual = 0.0904135, Final residual = 1.7415e-07, No Iterations 1
DILUPBiCGStab:  Solving for h, Initial residual = 0.0802292, Final residual = 1.34457e-07, No Iterations 1
min/max(T) = 300, 301.373
GAMG:  Solving for p_rgh, Initial residual = 0.00166842, Final residual = 9.04011e-05, No Iterations 3
diagonal:  Solving for rho, Initial residual = 0, Final residual = 0, No Iterations 0
time step continuity errors : sum local = 2.27933e-09, global = -9.7518e-10, cumulative = 1.21384e-09
GAMG:  Solving for p_rgh, Initial residual = 9.03936e-05, Final residual = 7.95248e-07, No Iterations 6
diagonal:  Solving for rho, Initial residual = 0, Final residual = 0, No Iterations 0
time step continuity errors : sum local = 2.01328e-11, global = -8.99802e-12, cumulative = 1.20484e-09
DILUPBiCGStab:  Solving for k, Initial residual = 0.38051, Final residual = 4.02012e-07, No Iterations 1
ExecutionTime = 6.52 s  ClockTime = 6 s

Courant Number mean: 1.09468e-06 max: 0.00471308
deltaT = 0.0181428
Time = 0.0565743

diagonal:  Solving for rho, Initial residual = 0, Final residual = 0, No Iterations 0
PIMPLE: iteration 1
DILUPBiCGStab:  Solving for Ux, Initial residual = 0.207616, Final residual = 2.48963e-07, No Iterations 1
DILUPBiCGStab:  Solving for Uz, Initial residual = 0.226935, Final residual = 9.1583e-08, No Iterations 1
DILUPBiCGStab:  Solving for O2, Initial residual = 0.0537706, Final residual = 3.04451e-07, No Iterations 1
DILUPBiCGStab:  Solving for H2O, Initial residual = 0.0853367, Final residual = 4.83505e-07, No Iterations 1
DILUPBiCGStab:  Solving for CH4, Initial residual = 0.0360201, Final residual = 2.03764e-07, No Iterations 1
DILUPBiCGStab:  Solving for CO2, Initial residual = 0.0853367, Final residual = 4.83505e-07, No Iterations 1
DILUPBiCGStab:  Solving for h, Initial residual = 0.0720702, Final residual = 3.48308e-07, No Iterations 1
min/max(T) = 300, 302.993
GAMG:  Solving for p_rgh, Initial residual = 0.000942755, Final residual = 7.02037e-05, No Iterations 3
diagonal:  Solving for rho, Initial residual = 0, Final residual = 0, No Iterations 0
time step continuity errors : sum local = 3.5418e-09, global = 1.0218e-09, cumulative = 2.22664e-09
GAMG:  Solving for p_rgh, Initial residual = 7.01818e-05, Final residual = 7.55306e-07, No Iterations 7
diagonal:  Solving for rho, Initial residual = 0, Final residual = 0, No Iterations 0
time step continuity errors : sum local = 3.81552e-11, global = -1.12657e-11, cumulative = 2.21538e-09
DILUPBiCGStab:  Solving for k, Initial residual = 0.365613, Final residual = 5.55115e-07, No Iterations 1
ExecutionTime = 7.29 s  ClockTime = 7 s

Courant Number mean: 2.05631e-06 max: 0.0082829
deltaT = 0.0262063
Time = 0.0827805

diagonal:  Solving for rho, Initial residual = 0, Final residual = 0, No Iterations 0
PIMPLE: iteration 1
DILUPBiCGStab:  Solving for Ux, Initial residual = 0.159728, Final residual = 3.17933e-07, No Iterations 1
DILUPBiCGStab:  Solving for Uz, Initial residual = 0.198984, Final residual = 1.67859e-07, No Iterations 1
DILUPBiCGStab:  Solving for O2, Initial residual = 0.0567866, Final residual = 9.9972e-07, No Iterations 1
DILUPBiCGStab:  Solving for H2O, Initial residual = 0.0823188, Final residual = 1.45062e-06, No Iterations 1
DILUPBiCGStab:  Solving for CH4, Initial residual = 0.0355125, Final residual = 6.24015e-07, No Iterations 1
DILUPBiCGStab:  Solving for CO2, Initial residual = 0.0823188, Final residual = 1.45062e-06, No Iterations 1
DILUPBiCGStab:  Solving for h, Initial residual = 0.0748413, Final residual = 4.17599e-12, No Iterations 1
min/max(T) = 300, 306.376
GAMG:  Solving for p_rgh, Initial residual = 0.00071557, Final residual = 5.2729e-05, No Iterations 4
diagonal:  Solving for rho, Initial residual = 0, Final residual = 0, No Iterations 0
time step continuity errors : sum local = 5.48716e-09, global = -2.818e-09, cumulative = -6.02621e-10
GAMG:  Solving for p_rgh, Initial residual = 5.27711e-05, Final residual = 5.79613e-07, No Iterations 8
diagonal:  Solving for rho, Initial residual = 0, Final residual = 0, No Iterations 0
time step continuity errors : sum local = 6.05358e-11, global = -1.49243e-11, cumulative = -6.17546e-10
DILUPBiCGStab:  Solving for k, Initial residual = 0.35866, Final residual = 7.86008e-07, No Iterations 1
ExecutionTime = 8.09 s  ClockTime = 8 s

Courant Number mean: 3.48582e-06 max: 0.0149258
deltaT = 0.0382175
Time = 0.120998

diagonal:  Solving for rho, Initial residual = 0, Final residual = 0, No Iterations 0
PIMPLE: iteration 1
DILUPBiCGStab:  Solving for Ux, Initial residual = 0.123497, Final residual = 3.3913e-07, No Iterations 1
DILUPBiCGStab:  Solving for Uz, Initial residual = 0.145897, Final residual = 3.49369e-07, No Iterations 1
DILUPBiCGStab:  Solving for O2, Initial residual = 0.0603174, Final residual = 3.46158e-06, No Iterations 1
DILUPBiCGStab:  Solving for H2O, Initial residual = 0.0805167, Final residual = 4.6267e-06, No Iterations 1
DILUPBiCGStab:  Solving for CH4, Initial residual = 0.0357076, Final residual = 2.04204e-06, No Iterations 1
DILUPBiCGStab:  Solving for CO2, Initial residual = 0.0805167, Final residual = 4.6267e-06, No Iterations 1
Radiation solver iter: 0
GAMG:  Solving for ILambda_0_0, Initial residual = 0.999999, Final residual = 0.665858, No Iterations 1
GAMG:  Solving for ILambda_1_0, Initial residual = 0.999999, Final residual = 0.562033, No Iterations 1
GAMG:  Solving for ILambda_2_0, Initial residual = 0.999999, Final residual = 1.85811e-05, No Iterations 1
GAMG:  Solving for ILambda_3_0, Initial residual = 0.999999, Final residual = 1.73576e-05, No Iterations 1
GAMG:  Solving for ILambda_4_0, Initial residual = 0.999999, Final residual = 0.767931, No Iterations 1
GAMG:  Solving for ILambda_5_0, Initial residual = 0.999999, Final residual = 0.732961, No Iterations 1
GAMG:  Solving for ILambda_6_0, Initial residual = 0.999999, Final residual = 0.120281, No Iterations 1
GAMG:  Solving for ILambda_7_0, Initial residual = 0.999999, Final residual = 0.00324869, No Iterations 1
DILUPBiCGStab:  Solving for h, Initial residual = 0.0805542, Final residual = 4.15867e-11, No Iterations 1
min/max(T) = 300, 313.37
GAMG:  Solving for p_rgh, Initial residual = 0.000528719, Final residual = 4.20578e-05, No Iterations 3
diagonal:  Solving for rho, Initial residual = 0, Final residual = 0, No Iterations 0
time step continuity errors : sum local = 9.29345e-09, global = 5.47913e-10, cumulative = -6.96322e-11
GAMG:  Solving for p_rgh, Initial residual = 4.24656e-05, Final residual = 6.61136e-07, No Iterations 7
diagonal:  Solving for rho, Initial residual = 0, Final residual = 0, No Iterations 0
time step continuity errors : sum local = 1.46402e-10, global = -5.59937e-11, cumulative = -1.25626e-10
DILUPBiCGStab:  Solving for k, Initial residual = 0.357695, Final residual = 1.02136e-10, No Iterations 1
ExecutionTime = 9.13 s  ClockTime = 9 s

Courant Number mean: 5.93541e-06 max: 0.027412
deltaT = 0.0549376
Time = 0.175936

diagonal:  Solving for rho, Initial residual = 0, Final residual = 0, No Iterations 0
PIMPLE: iteration 1
DILUPBiCGStab:  Solving for Ux, Initial residual = 0.116109, Final residual = 5.43791e-07, No Iterations 1
DILUPBiCGStab:  Solving for Uz, Initial residual = 0.112744, Final residual = 8.17248e-07, No Iterations 1
DILUPBiCGStab:  Solving for O2, Initial residual = 0.0623279, Final residual = 1.13613e-05, No Iterations 1
DILUPBiCGStab:  Solving for H2O, Initial residual = 0.0774351, Final residual = 1.41337e-05, No Iterations 1
DILUPBiCGStab:  Solving for CH4, Initial residual = 0.0357257, Final residual = 6.47971e-06, No Iterations 1
DILUPBiCGStab:  Solving for CO2, Initial residual = 0.0774351, Final residual = 1.41337e-05, No Iterations 1
DILUPBiCGStab:  Solving for h, Initial residual = 0.0776559, Final residual = 4.14578e-10, No Iterations 1
min/max(T) = 300, 327.32
GAMG:  Solving for p_rgh, Initial residual = 0.000524535, Final residual = 3.40368e-05, No Iterations 3
diagonal:  Solving for rho, Initial residual = 0, Final residual = 0, No Iterations 0
time step continuity errors : sum local = 1.55561e-08, global = 2.41043e-09, cumulative = 2.2848e-09
GAMG:  Solving for p_rgh, Initial residual = 3.57307e-05, Final residual = 6.44854e-07, No Iterations 6
diagonal:  Solving for rho, Initial residual = 0, Final residual = 0, No Iterations 0
time step continuity errors : sum local = 2.94659e-10, global = 7.46329e-11, cumulative = 2.35943e-09
DILUPBiCGStab:  Solving for k, Initial residual = 0.351961, Final residual = 2.06362e-10, No Iterations 1
ExecutionTime = 9.94 s  ClockTime = 9 s

Courant Number mean: 1.08359e-05 max: 0.0493463
deltaT = 0.0749149
Time = 0.250851

diagonal:  Solving for rho, Initial residual = 0, Final residual = 0, No Iterations 0
PIMPLE: iteration 1
DILUPBiCGStab:  Solving for Ux, Initial residual = 0.13074, Final residual = 4.09649e-10, No Iterations 1
DILUPBiCGStab:  Solving for Uz, Initial residual = 0.120445, Final residual = 5.56769e-10, No Iterations 1
DILUPBiCGStab:  Solving for O2, Initial residual = 0.0602796, Final residual = 3.04112e-05, No Iterations 1
DILUPBiCGStab:  Solving for H2O, Initial residual = 0.0706058, Final residual = 3.56353e-05, No Iterations 1
DILUPBiCGStab:  Solving for CH4, Initial residual = 0.0344905, Final residual = 1.73643e-05, No Iterations 1
DILUPBiCGStab:  Solving for CO2, Initial residual = 0.0706058, Final residual = 3.56353e-05, No Iterations 1
DILUPBiCGStab:  Solving for h, Initial residual = 0.07056, Final residual = 3.14464e-09, No Iterations 1
min/max(T) = 300, 352.806
GAMG:  Solving for p_rgh, Initial residual = 0.000552434, Final residual = 3.97928e-05, No Iterations 2
diagonal:  Solving for rho, Initial residual = 0, Final residual = 0, No Iterations 0
time step continuity errors : sum local = 3.38216e-08, global = 7.44872e-09, cumulative = 9.80815e-09
GAMG:  Solving for p_rgh, Initial residual = 4.20294e-05, Final residual = 7.67645e-07, No Iterations 5
diagonal:  Solving for rho, Initial residual = 0, Final residual = 0, No Iterations 0
time step continuity errors : sum local = 6.52814e-10, global = 1.74622e-10, cumulative = 9.98278e-09
DILUPBiCGStab:  Solving for k, Initial residual = 0.329716, Final residual = 3.54845e-10, No Iterations 1
ExecutionTime = 10.69 s  ClockTime = 10 s

Courant Number mean: 1.91187e-05 max: 0.0814569
deltaT = 0.107021
Time = 0.357872

diagonal:  Solving for rho, Initial residual = 0, Final residual = 0, No Iterations 0
PIMPLE: iteration 1
DILUPBiCGStab:  Solving for Ux, Initial residual = 0.141515, Final residual = 4.88143e-09, No Iterations 1
DILUPBiCGStab:  Solving for Uz, Initial residual = 0.136471, Final residual = 1.3098e-09, No Iterations 1
DILUPBiCGStab:  Solving for O2, Initial residual = 0.0570581, Final residual = 8.00885e-05, No Iterations 1
DILUPBiCGStab:  Solving for H2O, Initial residual = 0.063272, Final residual = 8.84606e-05, No Iterations 1
DILUPBiCGStab:  Solving for CH4, Initial residual = 0.035745, Final residual = 5.13718e-05, No Iterations 1
DILUPBiCGStab:  Solving for CO2, Initial residual = 0.063272, Final residual = 8.84606e-05, No Iterations 1
DILUPBiCGStab:  Solving for h, Initial residual = 0.0630946, Final residual = 2.60995e-08, No Iterations 1
min/max(T) = 300, 394.249
GAMG:  Solving for p_rgh, Initial residual = 0.000677062, Final residual = 5.16598e-05, No Iterations 2
diagonal:  Solving for rho, Initial residual = 0, Final residual = 0, No Iterations 0
time step continuity errors : sum local = 8.96574e-08, global = -2.06232e-08, cumulative = -1.06404e-08
GAMG:  Solving for p_rgh, Initial residual = 6.12727e-05, Final residual = 9.61763e-07, No Iterations 8
diagonal:  Solving for rho, Initial residual = 0, Final residual = 0, No Iterations 0
time step continuity errors : sum local = 1.67031e-09, global = 4.82618e-10, cumulative = -1.01578e-08
DILUPBiCGStab:  Solving for k, Initial residual = 0.331153, Final residual = 7.24136e-10, No Iterations 1
ExecutionTime = 11.5 s  ClockTime = 11 s

Courant Number mean: 3.251e-05 max: 0.120374
deltaT = 0.107021
Time = 0.464893

diagonal:  Solving for rho, Initial residual = 0, Final residual = 0, No Iterations 0
PIMPLE: iteration 1
DILUPBiCGStab:  Solving for Ux, Initial residual = 0.0854032, Final residual = 6.22875e-09, No Iterations 1
DILUPBiCGStab:  Solving for Uz, Initial residual = 0.0834914, Final residual = 1.95665e-09, No Iterations 1
DILUPBiCGStab:  Solving for O2, Initial residual = 0.0344826, Final residual = 4.90777e-05, No Iterations 1
DILUPBiCGStab:  Solving for H2O, Initial residual = 0.0366126, Final residual = 5.10324e-05, No Iterations 1
DILUPBiCGStab:  Solving for CH4, Initial residual = 0.0251637, Final residual = 4.00985e-05, No Iterations 1
DILUPBiCGStab:  Solving for CO2, Initial residual = 0.0366126, Final residual = 5.10324e-05, No Iterations 1
DILUPBiCGStab:  Solving for h, Initial residual = 0.0365344, Final residual = 2.26476e-08, No Iterations 1
min/max(T) = 300, 428.573
GAMG:  Solving for p_rgh, Initial residual = 0.000759519, Final residual = 5.00865e-05, No Iterations 2
diagonal:  Solving for rho, Initial residual = 0, Final residual = 0, No Iterations 0
time step continuity errors : sum local = 8.70568e-08, global = -2.17583e-08, cumulative = -3.19161e-08
GAMG:  Solving for p_rgh, Initial residual = 5.75714e-05, Final residual = 8.20905e-07, No Iterations 7
diagonal:  Solving for rho, Initial residual = 0, Final residual = 0, No Iterations 0
time step continuity errors : sum local = 1.42793e-09, global = 1.36327e-10, cumulative = -3.17798e-08
DILUPBiCGStab:  Solving for k, Initial residual = 0.228685, Final residual = 5.06569e-10, No Iterations 1
ExecutionTime = 12.29 s  ClockTime = 12 s

Courant Number mean: 3.45259e-05 max: 0.10952
deltaT = 0.107021
Time = 0.571915

diagonal:  Solving for rho, Initial residual = 0, Final residual = 0, No Iterations 0
PIMPLE: iteration 1
DILUPBiCGStab:  Solving for Ux, Initial residual = 0.0703106, Final residual = 3.73374e-09, No Iterations 1
DILUPBiCGStab:  Solving for Uz, Initial residual = 0.0615907, Final residual = 1.20313e-09, No Iterations 1
DILUPBiCGStab:  Solving for O2, Initial residual = 0.0252023, Final residual = 2.52996e-05, No Iterations 1
DILUPBiCGStab:  Solving for H2O, Initial residual = 0.0266903, Final residual = 2.58805e-05, No Iterations 1
DILUPBiCGStab:  Solving for CH4, Initial residual = 0.0179328, Final residual = 2.11689e-05, No Iterations 1
DILUPBiCGStab:  Solving for CO2, Initial residual = 0.0266903, Final residual = 2.58805e-05, No Iterations 1
DILUPBiCGStab:  Solving for h, Initial residual = 0.0266378, Final residual = 1.32573e-08, No Iterations 1
min/max(T) = 300, 457.953
GAMG:  Solving for p_rgh, Initial residual = 0.00081101, Final residual = 3.29937e-05, No Iterations 2
diagonal:  Solving for rho, Initial residual = 0, Final residual = 0, No Iterations 0
time step continuity errors : sum local = 5.74227e-08, global = -5.91099e-09, cumulative = -3.76908e-08
GAMG:  Solving for p_rgh, Initial residual = 4.08445e-05, Final residual = 4.02257e-07, No Iterations 5
diagonal:  Solving for rho, Initial residual = 0, Final residual = 0, No Iterations 0
time step continuity errors : sum local = 7.00363e-10, global = -5.29998e-12, cumulative = -3.76961e-08
DILUPBiCGStab:  Solving for k, Initial residual = 0.174184, Final residual = 3.85583e-10, No Iterations 1
ExecutionTime = 13.12 s  ClockTime = 12 s

Courant Number mean: 3.68113e-05 max: 0.129898
deltaT = 0.107021
Time = 0.678936

diagonal:  Solving for rho, Initial residual = 0, Final residual = 0, No Iterations 0
PIMPLE: iteration 1
DILUPBiCGStab:  Solving for Ux, Initial residual = 0.0594671, Final residual = 2.19803e-09, No Iterations 1
DILUPBiCGStab:  Solving for Uz, Initial residual = 0.0526379, Final residual = 5.57343e-10, No Iterations 1
DILUPBiCGStab:  Solving for O2, Initial residual = 0.0199571, Final residual = 1.4175e-05, No Iterations 1
DILUPBiCGStab:  Solving for H2O, Initial residual = 0.0210982, Final residual = 1.44864e-05, No Iterations 1
DILUPBiCGStab:  Solving for CH4, Initial residual = 0.013897, Final residual = 1.11495e-05, No Iterations 1
DILUPBiCGStab:  Solving for CO2, Initial residual = 0.0210982, Final residual = 1.44864e-05, No Iterations 1
DILUPBiCGStab:  Solving for h, Initial residual = 0.0210491, Final residual = 8.55504e-09, No Iterations 1
min/max(T) = 300, 482.281
GAMG:  Solving for p_rgh, Initial residual = 0.000875546, Final residual = 8.38202e-05, No Iterations 1
diagonal:  Solving for rho, Initial residual = 0, Final residual = 0, No Iterations 0
time step continuity errors : sum local = 1.45998e-07, global = -1.26585e-09, cumulative = -3.89619e-08
GAMG:  Solving for p_rgh, Initial residual = 8.32185e-05, Final residual = 8.93518e-07, No Iterations 5
diagonal:  Solving for rho, Initial residual = 0, Final residual = 0, No Iterations 0
time step continuity errors : sum local = 1.55687e-09, global = 1.94787e-10, cumulative = -3.87671e-08
DILUPBiCGStab:  Solving for k, Initial residual = 0.140639, Final residual = 3.08119e-10, No Iterations 1
ExecutionTime = 13.88 s  ClockTime = 13 s

Courant Number mean: 3.9388e-05 max: 0.154918
deltaT = 0.107021
Time = 0.785957

diagonal:  Solving for rho, Initial residual = 0, Final residual = 0, No Iterations 0
PIMPLE: iteration 1
DILUPBiCGStab:  Solving for Ux, Initial residual = 0.0526346, Final residual = 2.56982e-09, No Iterations 1
DILUPBiCGStab:  Solving for Uz, Initial residual = 0.0475048, Final residual = 7.0856e-10, No Iterations 1
DILUPBiCGStab:  Solving for O2, Initial residual = 0.0165753, Final residual = 1.10127e-05, No Iterations 1
DILUPBiCGStab:  Solving for H2O, Initial residual = 0.0175151, Final residual = 1.18651e-05, No Iterations 1
DILUPBiCGStab:  Solving for CH4, Initial residual = 0.0113197, Final residual = 6.35316e-06, No Iterations 1
DILUPBiCGStab:  Solving for CO2, Initial residual = 0.0175151, Final residual = 1.18651e-05, No Iterations 1
DILUPBiCGStab:  Solving for h, Initial residual = 0.0174768, Final residual = 4.19115e-09, No Iterations 1
min/max(T) = 300, 501.331
GAMG:  Solving for p_rgh, Initial residual = 0.000910924, Final residual = 7.72472e-05, No Iterations 1
diagonal:  Solving for rho, Initial residual = 0, Final residual = 0, No Iterations 0
time step continuity errors : sum local = 1.34634e-07, global = -2.34214e-09, cumulative = -4.11093e-08
GAMG:  Solving for p_rgh, Initial residual = 7.66107e-05, Final residual = 3.91193e-07, No Iterations 5
diagonal:  Solving for rho, Initial residual = 0, Final residual = 0, No Iterations 0
time step continuity errors : sum local = 6.82074e-10, global = 5.5611e-11, cumulative = -4.10536e-08
DILUPBiCGStab:  Solving for k, Initial residual = 0.117996, Final residual = 2.56292e-10, No Iterations 1
ExecutionTime = 14.66 s  ClockTime = 14 s

Courant Number mean: 4.21712e-05 max: 0.186195
deltaT = 0.107021
Time = 0.892979

diagonal:  Solving for rho, Initial residual = 0, Final residual = 0, No Iterations 0
PIMPLE: iteration 1
DILUPBiCGStab:  Solving for Ux, Initial residual = 0.047968, Final residual = 9.04028e-09, No Iterations 1
DILUPBiCGStab:  Solving for Uz, Initial residual = 0.0438454, Final residual = 3.75797e-09, No Iterations 1
DILUPBiCGStab:  Solving for O2, Initial residual = 0.014285, Final residual = 1.69534e-05, No Iterations 1
DILUPBiCGStab:  Solving for H2O, Initial residual = 0.0150988, Final residual = 1.84492e-05, No Iterations 1
DILUPBiCGStab:  Solving for CH4, Initial residual = 0.00974505, Final residual = 8.99092e-06, No Iterations 1
DILUPBiCGStab:  Solving for CO2, Initial residual = 0.0150988, Final residual = 1.84492e-05, No Iterations 1
DILUPBiCGStab:  Solving for h, Initial residual = 0.0150692, Final residual = 1.03653e-08, No Iterations 1
min/max(T) = 300, 515.878
GAMG:  Solving for p_rgh, Initial residual = 0.000954046, Final residual = 9.04686e-05, No Iterations 1
diagonal:  Solving for rho, Initial residual = 0, Final residual = 0, No Iterations 0
time step continuity errors : sum local = 1.57773e-07, global = 5.22076e-09, cumulative = -3.58329e-08
GAMG:  Solving for p_rgh, Initial residual = 8.94782e-05, Final residual = 7.07586e-07, No Iterations 6
diagonal:  Solving for rho, Initial residual = 0, Final residual = 0, No Iterations 0
time step continuity errors : sum local = 1.23437e-09, global = 6.30798e-10, cumulative = -3.52021e-08
DILUPBiCGStab:  Solving for k, Initial residual = 0.101702, Final residual = 9.05995e-07, No Iterations 1
ExecutionTime = 15.44 s  ClockTime = 14 s

Courant Number mean: 4.56493e-05 max: 0.225214
deltaT = 0.107021
Time = 1

diagonal:  Solving for rho, Initial residual = 0, Final residual = 0, No Iterations 0
PIMPLE: iteration 1
DILUPBiCGStab:  Solving for Ux, Initial residual = 0.0456345, Final residual = 2.00554e-08, No Iterations 1
DILUPBiCGStab:  Solving for Uz, Initial residual = 0.0423349, Final residual = 1.33151e-08, No Iterations 1
DILUPBiCGStab:  Solving for O2, Initial residual = 0.0124297, Final residual = 1.98943e-05, No Iterations 1
DILUPBiCGStab:  Solving for H2O, Initial residual = 0.013121, Final residual = 2.1519e-05, No Iterations 1
DILUPBiCGStab:  Solving for CH4, Initial residual = 0.00858952, Final residual = 1.57706e-05, No Iterations 1
DILUPBiCGStab:  Solving for CO2, Initial residual = 0.013121, Final residual = 2.1519e-05, No Iterations 1
DILUPBiCGStab:  Solving for h, Initial residual = 0.0130979, Final residual = 1.96682e-08, No Iterations 1
min/max(T) = 300, 527.667
GAMG:  Solving for p_rgh, Initial residual = 0.00101551, Final residual = 2.49639e-05, No Iterations 2
diagonal:  Solving for rho, Initial residual = 0, Final residual = 0, No Iterations 0
time step continuity errors : sum local = 4.3556e-08, global = 1.17632e-09, cumulative = -3.40258e-08
GAMG:  Solving for p_rgh, Initial residual = 3.1041e-05, Final residual = 7.16789e-07, No Iterations 4
diagonal:  Solving for rho, Initial residual = 0, Final residual = 0, No Iterations 0
time step continuity errors : sum local = 1.25101e-09, global = 7.03778e-11, cumulative = -3.39554e-08
DILUPBiCGStab:  Solving for k, Initial residual = 0.0894289, Final residual = 7.97973e-07, No Iterations 1
ExecutionTime = 16.26 s  ClockTime = 18 s

Courant Number mean: 4.93045e-05 max: 0.261363
deltaT = 0.1
Time = 1.1

diagonal:  Solving for rho, Initial residual = 0, Final residual = 0, No Iterations 0
PIMPLE: iteration 1
DILUPBiCGStab:  Solving for Ux, Initial residual = 0.0400379, Final residual = 2.31553e-08, No Iterations 1
DILUPBiCGStab:  Solving for Uz, Initial residual = 0.0376997, Final residual = 2.15997e-08, No Iterations 1
DILUPBiCGStab:  Solving for O2, Initial residual = 0.010035, Final residual = 1.88346e-05, No Iterations 1
DILUPBiCGStab:  Solving for H2O, Initial residual = 0.0105618, Final residual = 1.97584e-05, No Iterations 1
DILUPBiCGStab:  Solving for CH4, Initial residual = 0.00713269, Final residual = 1.93247e-05, No Iterations 1
DILUPBiCGStab:  Solving for CO2, Initial residual = 0.0105618, Final residual = 1.97584e-05, No Iterations 1
Radiation solver iter: 0
GAMG:  Solving for ILambda_0_0, Initial residual = 0.985164, Final residual = 0.0930407, No Iterations 1
GAMG:  Solving for ILambda_1_0, Initial residual = 0.986981, Final residual = 0.0818866, No Iterations 1
GAMG:  Solving for ILambda_2_0, Initial residual = 0.987434, Final residual = 1.76218e-08, No Iterations 1
GAMG:  Solving for ILambda_3_0, Initial residual = 0.986089, Final residual = 1.82977e-08, No Iterations 1
GAMG:  Solving for ILambda_4_0, Initial residual = 0.985076, Final residual = 0.12189, No Iterations 1
GAMG:  Solving for ILambda_5_0, Initial residual = 0.986974, Final residual = 0.140025, No Iterations 1
GAMG:  Solving for ILambda_6_0, Initial residual = 0.987357, Final residual = 0.00795114, No Iterations 1
GAMG:  Solving for ILambda_7_0, Initial residual = 0.986085, Final residual = 0.00019513, No Iterations 1
DILUPBiCGStab:  Solving for h, Initial residual = 0.010595, Final residual = 1.97858e-08, No Iterations 1
min/max(T) = 300, 547.569
GAMG:  Solving for p_rgh, Initial residual = 0.00106357, Final residual = 3.85316e-05, No Iterations 2
diagonal:  Solving for rho, Initial residual = 0, Final residual = 0, No Iterations 0
time step continuity errors : sum local = 5.87296e-08, global = 1.58505e-09, cumulative = -3.23703e-08
GAMG:  Solving for p_rgh, Initial residual = 4.30434e-05, Final residual = 6.47885e-07, No Iterations 5
diagonal:  Solving for rho, Initial residual = 0, Final residual = 0, No Iterations 0
time step continuity errors : sum local = 9.87748e-10, global = 3.71669e-11, cumulative = -3.23332e-08
DILUPBiCGStab:  Solving for k, Initial residual = 0.0744724, Final residual = 6.22083e-07, No Iterations 1
ExecutionTime = 17.26 s  ClockTime = 19 s

Courant Number mean: 4.92312e-05 max: 0.255034
deltaT = 0.1
Time = 1.2

diagonal:  Solving for rho, Initial residual = 0, Final residual = 0, No Iterations 0
PIMPLE: iteration 1
DILUPBiCGStab:  Solving for Ux, Initial residual = 0.0388226, Final residual = 2.97054e-08, No Iterations 1
DILUPBiCGStab:  Solving for Uz, Initial residual = 0.0370698, Final residual = 3.28998e-08, No Iterations 1
DILUPBiCGStab:  Solving for O2, Initial residual = 0.00925864, Final residual = 2.05195e-05, No Iterations 1
DILUPBiCGStab:  Solving for H2O, Initial residual = 0.00968687, Final residual = 2.10022e-05, No Iterations 1
DILUPBiCGStab:  Solving for CH4, Initial residual = 0.00715507, Final residual = 2.11117e-05, No Iterations 1
DILUPBiCGStab:  Solving for CO2, Initial residual = 0.00968687, Final residual = 2.10022e-05, No Iterations 1
DILUPBiCGStab:  Solving for h, Initial residual = 0.00964831, Final residual = 2.34014e-08, No Iterations 1
min/max(T) = 300, 571.386
GAMG:  Solving for p_rgh, Initial residual = 0.0011898, Final residual = 2.97548e-05, No Iterations 2
diagonal:  Solving for rho, Initial residual = 0, Final residual = 0, No Iterations 0
time step continuity errors : sum local = 4.53647e-08, global = 4.33134e-09, cumulative = -2.80018e-08
GAMG:  Solving for p_rgh, Initial residual = 3.66171e-05, Final residual = 9.79328e-07, No Iterations 5
diagonal:  Solving for rho, Initial residual = 0, Final residual = 0, No Iterations 0
time step continuity errors : sum local = 1.49313e-09, global = 6.33869e-10, cumulative = -2.7368e-08
DILUPBiCGStab:  Solving for k, Initial residual = 0.0677538, Final residual = 5.72959e-07, No Iterations 1
ExecutionTime = 18.02 s  ClockTime = 20 s

Courant Number mean: 5.30245e-05 max: 0.26699
deltaT = 0.1
Time = 1.3

diagonal:  Solving for rho, Initial residual = 0, Final residual = 0, No Iterations 0
PIMPLE: iteration 1
DILUPBiCGStab:  Solving for Ux, Initial residual = 0.0391563, Final residual = 4.35176e-08, No Iterations 1
DILUPBiCGStab:  Solving for Uz, Initial residual = 0.0369956, Final residual = 4.07544e-08, No Iterations 1
DILUPBiCGStab:  Solving for O2, Initial residual = 0.00928824, Final residual = 2.39299e-05, No Iterations 1
DILUPBiCGStab:  Solving for H2O, Initial residual = 0.00971727, Final residual = 2.43239e-05, No Iterations 1
DILUPBiCGStab:  Solving for CH4, Initial residual = 0.00625174, Final residual = 1.89951e-05, No Iterations 1
DILUPBiCGStab:  Solving for CO2, Initial residual = 0.00971727, Final residual = 2.43239e-05, No Iterations 1
DILUPBiCGStab:  Solving for h, Initial residual = 0.00967061, Final residual = 3.60631e-08, No Iterations 1
min/max(T) = 300, 591.954
GAMG:  Solving for p_rgh, Initial residual = 0.00129563, Final residual = 4.04738e-05, No Iterations 2
diagonal:  Solving for rho, Initial residual = 0, Final residual = 0, No Iterations 0
time step continuity errors : sum local = 6.17203e-08, global = 2.67778e-08, cumulative = -5.90157e-10
GAMG:  Solving for p_rgh, Initial residual = 5.26036e-05, Final residual = 5.64778e-07, No Iterations 8
diagonal:  Solving for rho, Initial residual = 0, Final residual = 0, No Iterations 0
time step continuity errors : sum local = 8.61453e-10, global = 2.65884e-10, cumulative = -3.24273e-10
DILUPBiCGStab:  Solving for k, Initial residual = 0.0621846, Final residual = 5.60695e-07, No Iterations 1
ExecutionTime = 18.81 s  ClockTime = 20 s

Courant Number mean: 5.89301e-05 max: 0.294107
deltaT = 0.1
Time = 1.4

diagonal:  Solving for rho, Initial residual = 0, Final residual = 0, No Iterations 0
PIMPLE: iteration 1
DILUPBiCGStab:  Solving for Ux, Initial residual = 0.0487627, Final residual = 5.39685e-08, No Iterations 1
DILUPBiCGStab:  Solving for Uz, Initial residual = 0.0453001, Final residual = 4.10429e-08, No Iterations 1
DILUPBiCGStab:  Solving for O2, Initial residual = 0.00953019, Final residual = 2.74267e-05, No Iterations 1
DILUPBiCGStab:  Solving for H2O, Initial residual = 0.0098755, Final residual = 2.79519e-05, No Iterations 1
DILUPBiCGStab:  Solving for CH4, Initial residual = 0.00697716, Final residual = 2.55348e-05, No Iterations 1
DILUPBiCGStab:  Solving for CO2, Initial residual = 0.0098755, Final residual = 2.79519e-05, No Iterations 1
DILUPBiCGStab:  Solving for h, Initial residual = 0.00982265, Final residual = 3.85102e-08, No Iterations 1
min/max(T) = 300, 604.119
GAMG:  Solving for p_rgh, Initial residual = 0.00133863, Final residual = 4.99912e-05, No Iterations 2
diagonal:  Solving for rho, Initial residual = 0, Final residual = 0, No Iterations 0
time step continuity errors : sum local = 7.62557e-08, global = 3.06503e-08, cumulative = 3.0326e-08
GAMG:  Solving for p_rgh, Initial residual = 6.58269e-05, Final residual = 4.38874e-07, No Iterations 8
diagonal:  Solving for rho, Initial residual = 0, Final residual = 0, No Iterations 0
time step continuity errors : sum local = 6.69923e-10, global = 2.00788e-10, cumulative = 3.05268e-08
DILUPBiCGStab:  Solving for k, Initial residual = 0.0574947, Final residual = 5.40918e-07, No Iterations 1
ExecutionTime = 19.63 s  ClockTime = 21 s

Courant Number mean: 6.72358e-05 max: 0.317103
deltaT = 0.1
Time = 1.5

diagonal:  Solving for rho, Initial residual = 0, Final residual = 0, No Iterations 0
PIMPLE: iteration 1
DILUPBiCGStab:  Solving for Ux, Initial residual = 0.0559336, Final residual = 6.28246e-08, No Iterations 1
DILUPBiCGStab:  Solving for Uz, Initial residual = 0.052834, Final residual = 3.80182e-08, No Iterations 1
DILUPBiCGStab:  Solving for O2, Initial residual = 0.00963156, Final residual = 3.49233e-05, No Iterations 1
DILUPBiCGStab:  Solving for H2O, Initial residual = 0.0100022, Final residual = 3.59649e-05, No Iterations 1
DILUPBiCGStab:  Solving for CH4, Initial residual = 0.00666756, Final residual = 2.86859e-05, No Iterations 1
DILUPBiCGStab:  Solving for CO2, Initial residual = 0.0100022, Final residual = 3.59649e-05, No Iterations 1
DILUPBiCGStab:  Solving for h, Initial residual = 0.00994935, Final residual = 5.4043e-08, No Iterations 1
min/max(T) = 300, 615.083
GAMG:  Solving for p_rgh, Initial residual = 0.00131242, Final residual = 5.95794e-05, No Iterations 2
diagonal:  Solving for rho, Initial residual = 0, Final residual = 0, No Iterations 0
time step continuity errors : sum local = 9.09467e-08, global = 2.96967e-08, cumulative = 6.02235e-08
GAMG:  Solving for p_rgh, Initial residual = 7.7146e-05, Final residual = 6.47591e-07, No Iterations 8
diagonal:  Solving for rho, Initial residual = 0, Final residual = 0, No Iterations 0
time step continuity errors : sum local = 9.89412e-10, global = 4.30826e-10, cumulative = 6.06543e-08
DILUPBiCGStab:  Solving for k, Initial residual = 0.0534921, Final residual = 5.44857e-07, No Iterations 1
ExecutionTime = 20.44 s  ClockTime = 22 s

Courant Number mean: 7.74857e-05 max: 0.366485
deltaT = 0.1
Time = 1.6

diagonal:  Solving for rho, Initial residual = 0, Final residual = 0, No Iterations 0
PIMPLE: iteration 1
DILUPBiCGStab:  Solving for Ux, Initial residual = 0.0599118, Final residual = 7.43989e-08, No Iterations 1
DILUPBiCGStab:  Solving for Uz, Initial residual = 0.0577395, Final residual = 4.36961e-08, No Iterations 1
DILUPBiCGStab:  Solving for O2, Initial residual = 0.00933211, Final residual = 4.23423e-05, No Iterations 1
DILUPBiCGStab:  Solving for H2O, Initial residual = 0.00966989, Final residual = 4.33847e-05, No Iterations 1
DILUPBiCGStab:  Solving for CH4, Initial residual = 0.00646173, Final residual = 3.38211e-05, No Iterations 1
DILUPBiCGStab:  Solving for CO2, Initial residual = 0.00966989, Final residual = 4.33847e-05, No Iterations 1
DILUPBiCGStab:  Solving for h, Initial residual = 0.00960998, Final residual = 9.44621e-08, No Iterations 1
min/max(T) = 300, 625.694
GAMG:  Solving for p_rgh, Initial residual = 0.00126865, Final residual = 6.52914e-05, No Iterations 2
diagonal:  Solving for rho, Initial residual = 0, Final residual = 0, No Iterations 0
time step continuity errors : sum local = 9.97396e-08, global = 1.92831e-09, cumulative = 6.25826e-08
GAMG:  Solving for p_rgh, Initial residual = 8.51839e-05, Final residual = 5.45112e-07, No Iterations 6
diagonal:  Solving for rho, Initial residual = 0, Final residual = 0, No Iterations 0
time step continuity errors : sum local = 8.33032e-10, global = -1.34549e-11, cumulative = 6.25691e-08
DILUPBiCGStab:  Solving for k, Initial residual = 0.0500389, Final residual = 5.61049e-07, No Iterations 1
ExecutionTime = 21.22 s  ClockTime = 23 s

Courant Number mean: 8.70093e-05 max: 0.407522
deltaT = 0.1
Time = 1.7

diagonal:  Solving for rho, Initial residual = 0, Final residual = 0, No Iterations 0
PIMPLE: iteration 1
DILUPBiCGStab:  Solving for Ux, Initial residual = 0.0537576, Final residual = 9.67683e-08, No Iterations 1
DILUPBiCGStab:  Solving for Uz, Initial residual = 0.0531658, Final residual = 5.79476e-08, No Iterations 1
DILUPBiCGStab:  Solving for O2, Initial residual = 0.00912133, Final residual = 4.75934e-05, No Iterations 1
DILUPBiCGStab:  Solving for H2O, Initial residual = 0.00944867, Final residual = 4.80875e-05, No Iterations 1
DILUPBiCGStab:  Solving for CH4, Initial residual = 0.00680197, Final residual = 4.18115e-05, No Iterations 1
DILUPBiCGStab:  Solving for CO2, Initial residual = 0.00944867, Final residual = 4.80875e-05, No Iterations 1
DILUPBiCGStab:  Solving for h, Initial residual = 0.0093947, Final residual = 1.14062e-07, No Iterations 1
min/max(T) = 300, 647.815
GAMG:  Solving for p_rgh, Initial residual = 0.00127697, Final residual = 6.30488e-05, No Iterations 2
diagonal:  Solving for rho, Initial residual = 0, Final residual = 0, No Iterations 0
time step continuity errors : sum local = 9.63996e-08, global = 2.92307e-08, cumulative = 9.17999e-08
GAMG:  Solving for p_rgh, Initial residual = 8.83484e-05, Final residual = 9.80199e-07, No Iterations 8
diagonal:  Solving for rho, Initial residual = 0, Final residual = 0, No Iterations 0
time step continuity errors : sum local = 1.49885e-09, global = 1.23074e-10, cumulative = 9.19229e-08
DILUPBiCGStab:  Solving for k, Initial residual = 0.0470296, Final residual = 5.80596e-07, No Iterations 1
ExecutionTime = 22.04 s  ClockTime = 23 s

Courant Number mean: 9.95747e-05 max: 0.431889
deltaT = 0.1
Time = 1.8

diagonal:  Solving for rho, Initial residual = 0, Final residual = 0, No Iterations 0
PIMPLE: iteration 1
DILUPBiCGStab:  Solving for Ux, Initial residual = 0.0599176, Final residual = 1.15794e-07, No Iterations 1
DILUPBiCGStab:  Solving for Uz, Initial residual = 0.0586164, Final residual = 7.07293e-08, No Iterations 1
DILUPBiCGStab:  Solving for O2, Initial residual = 0.00887804, Final residual = 4.87042e-05, No Iterations 1
DILUPBiCGStab:  Solving for H2O, Initial residual = 0.00921163, Final residual = 4.8909e-05, No Iterations 1
DILUPBiCGStab:  Solving for CH4, Initial residual = 0.00683865, Final residual = 4.34336e-05, No Iterations 1
DILUPBiCGStab:  Solving for CO2, Initial residual = 0.00921163, Final residual = 4.8909e-05, No Iterations 1
DILUPBiCGStab:  Solving for h, Initial residual = 0.00917603, Final residual = 1.40737e-07, No Iterations 1
min/max(T) = 300, 674.682
GAMG:  Solving for p_rgh, Initial residual = 0.00131242, Final residual = 8.3097e-05, No Iterations 2
diagonal:  Solving for rho, Initial residual = 0, Final residual = 0, No Iterations 0
time step continuity errors : sum local = 1.27097e-07, global = 3.22093e-08, cumulative = 1.24132e-07
GAMG:  Solving for p_rgh, Initial residual = 0.000106835, Final residual = 8.47427e-07, No Iterations 7
diagonal:  Solving for rho, Initial residual = 0, Final residual = 0, No Iterations 0
time step continuity errors : sum local = 1.29689e-09, global = 4.71455e-10, cumulative = 1.24604e-07
DILUPBiCGStab:  Solving for k, Initial residual = 0.0443854, Final residual = 6.27243e-07, No Iterations 1
ExecutionTime = 22.84 s  ClockTime = 24 s

Courant Number mean: 0.00011466 max: 0.459665
deltaT = 0.1
Time = 1.9

diagonal:  Solving for rho, Initial residual = 0, Final residual = 0, No Iterations 0
PIMPLE: iteration 1
DILUPBiCGStab:  Solving for Ux, Initial residual = 0.0627826, Final residual = 1.50552e-07, No Iterations 1
DILUPBiCGStab:  Solving for Uz, Initial residual = 0.061485, Final residual = 8.67711e-08, No Iterations 1
DILUPBiCGStab:  Solving for O2, Initial residual = 0.00892318, Final residual = 5.2215e-05, No Iterations 1
DILUPBiCGStab:  Solving for H2O, Initial residual = 0.00924476, Final residual = 5.28865e-05, No Iterations 1
DILUPBiCGStab:  Solving for CH4, Initial residual = 0.00679854, Final residual = 4.60932e-05, No Iterations 1
DILUPBiCGStab:  Solving for CO2, Initial residual = 0.00924476, Final residual = 5.28865e-05, No Iterations 1
DILUPBiCGStab:  Solving for h, Initial residual = 0.00925766, Final residual = 1.76696e-07, No Iterations 1
min/max(T) = 300, 700.896
GAMG:  Solving for p_rgh, Initial residual = 0.00129288, Final residual = 9.21171e-05, No Iterations 2
diagonal:  Solving for rho, Initial residual = 0, Final residual = 0, No Iterations 0
time step continuity errors : sum local = 1.41005e-07, global = 2.53259e-08, cumulative = 1.4993e-07
GAMG:  Solving for p_rgh, Initial residual = 0.000118119, Final residual = 6.05594e-07, No Iterations 7
diagonal:  Solving for rho, Initial residual = 0, Final residual = 0, No Iterations 0
time step continuity errors : sum local = 9.27889e-10, global = 2.82916e-10, cumulative = 1.50212e-07
DILUPBiCGStab:  Solving for k, Initial residual = 0.0420446, Final residual = 7.01887e-07, No Iterations 1
ExecutionTime = 23.65 s  ClockTime = 25 s

Courant Number mean: 0.000131183 max: 0.484056
deltaT = 0.1
Time = 2

diagonal:  Solving for rho, Initial residual = 0, Final residual = 0, No Iterations 0
PIMPLE: iteration 1
DILUPBiCGStab:  Solving for Ux, Initial residual = 0.0617285, Final residual = 2.11847e-07, No Iterations 1
DILUPBiCGStab:  Solving for Uz, Initial residual = 0.0607346, Final residual = 1.09935e-07, No Iterations 1
DILUPBiCGStab:  Solving for O2, Initial residual = 0.00911602, Final residual = 6.15873e-05, No Iterations 1
DILUPBiCGStab:  Solving for H2O, Initial residual = 0.00939755, Final residual = 6.26636e-05, No Iterations 1
DILUPBiCGStab:  Solving for CH4, Initial residual = 0.00675834, Final residual = 5.30926e-05, No Iterations 1
DILUPBiCGStab:  Solving for CO2, Initial residual = 0.00939755, Final residual = 6.26636e-05, No Iterations 1
DILUPBiCGStab:  Solving for h, Initial residual = 0.00942368, Final residual = 2.84442e-07, No Iterations 1
min/max(T) = 300, 731.276
GAMG:  Solving for p_rgh, Initial residual = 0.00154401, Final residual = 0.000113528, No Iterations 2
diagonal:  Solving for rho, Initial residual = 0, Final residual = 0, No Iterations 0
time step continuity errors : sum local = 1.74e-07, global = 1.51163e-08, cumulative = 1.65329e-07
GAMG:  Solving for p_rgh, Initial residual = 0.00014291, Final residual = 5.05186e-07, No Iterations 7
diagonal:  Solving for rho, Initial residual = 0, Final residual = 0, No Iterations 0
time step continuity errors : sum local = 7.75017e-10, global = 1.79376e-10, cumulative = 1.65508e-07
DILUPBiCGStab:  Solving for k, Initial residual = 0.0399597, Final residual = 8.8717e-07, No Iterations 1
ExecutionTime = 24.45 s  ClockTime = 26 s

Courant Number mean: 0.000148064 max: 0.505161
deltaT = 0.1
Time = 2.1

diagonal:  Solving for rho, Initial residual = 0, Final residual = 0, No Iterations 0
PIMPLE: iteration 1
DILUPBiCGStab:  Solving for Ux, Initial residual = 0.058106, Final residual = 2.21562e-07, No Iterations 1
DILUPBiCGStab:  Solving for Uz, Initial residual = 0.0576347, Final residual = 1.53758e-07, No Iterations 1
DILUPBiCGStab:  Solving for O2, Initial residual = 0.00906848, Final residual = 6.87998e-05, No Iterations 1
DILUPBiCGStab:  Solving for H2O, Initial residual = 0.00932911, Final residual = 7.0659e-05, No Iterations 1
DILUPBiCGStab:  Solving for CH4, Initial residual = 0.00667225, Final residual = 5.31001e-05, No Iterations 1
DILUPBiCGStab:  Solving for CO2, Initial residual = 0.00932911, Final residual = 7.0659e-05, No Iterations 1
Radiation solver iter: 0
GAMG:  Solving for ILambda_0_0, Initial residual = 0.561537, Final residual = 0.0380356, No Iterations 1
GAMG:  Solving for ILambda_1_0, Initial residual = 0.576386, Final residual = 0.0358443, No Iterations 1
GAMG:  Solving for ILambda_2_0, Initial residual = 0.584451, Final residual = 3.18047e-08, No Iterations 1
GAMG:  Solving for ILambda_3_0, Initial residual = 0.582886, Final residual = 4.44737e-08, No Iterations 1
GAMG:  Solving for ILambda_4_0, Initial residual = 0.565225, Final residual = 0.0434656, No Iterations 1
GAMG:  Solving for ILambda_5_0, Initial residual = 0.577547, Final residual = 0.049054, No Iterations 1
GAMG:  Solving for ILambda_6_0, Initial residual = 0.584401, Final residual = 0.00649857, No Iterations 1
GAMG:  Solving for ILambda_7_0, Initial residual = 0.582863, Final residual = 0.000200038, No Iterations 1
DILUPBiCGStab:  Solving for h, Initial residual = 0.00942751, Final residual = 3.70897e-07, No Iterations 1
min/max(T) = 300, 747.853
GAMG:  Solving for p_rgh, Initial residual = 0.00167168, Final residual = 0.000129488, No Iterations 2
diagonal:  Solving for rho, Initial residual = 0, Final residual = 0, No Iterations 0
time step continuity errors : sum local = 1.98768e-07, global = 3.41242e-08, cumulative = 1.99632e-07
GAMG:  Solving for p_rgh, Initial residual = 0.000154399, Final residual = 8.74414e-07, No Iterations 7
diagonal:  Solving for rho, Initial residual = 0, Final residual = 0, No Iterations 0
time step continuity errors : sum local = 1.3432e-09, global = 8.42794e-10, cumulative = 2.00475e-07
DILUPBiCGStab:  Solving for k, Initial residual = 0.0380925, Final residual = 2.98868e-09, No Iterations 1
ExecutionTime = 25.48 s  ClockTime = 27 s

Courant Number mean: 0.000166554 max: 0.550846
deltaT = 0.1
Time = 2.2

diagonal:  Solving for rho, Initial residual = 0, Final residual = 0, No Iterations 0
PIMPLE: iteration 1
DILUPBiCGStab:  Solving for Ux, Initial residual = 0.0562142, Final residual = 2.1771e-07, No Iterations 1
DILUPBiCGStab:  Solving for Uz, Initial residual = 0.0563962, Final residual = 2.29481e-07, No Iterations 1
DILUPBiCGStab:  Solving for O2, Initial residual = 0.00867053, Final residual = 6.61647e-05, No Iterations 1
DILUPBiCGStab:  Solving for H2O, Initial residual = 0.00891788, Final residual = 6.78918e-05, No Iterations 1
DILUPBiCGStab:  Solving for CH4, Initial residual = 0.00644919, Final residual = 5.41236e-05, No Iterations 1
DILUPBiCGStab:  Solving for CO2, Initial residual = 0.00891788, Final residual = 6.78918e-05, No Iterations 1
DILUPBiCGStab:  Solving for h, Initial residual = 0.00884328, Final residual = 3.60172e-07, No Iterations 1
min/max(T) = 300, 753.836
GAMG:  Solving for p_rgh, Initial residual = 0.00168813, Final residual = 0.000132737, No Iterations 2
diagonal:  Solving for rho, Initial residual = 0, Final residual = 0, No Iterations 0
time step continuity errors : sum local = 2.04061e-07, global = 4.36111e-09, cumulative = 2.04836e-07
GAMG:  Solving for p_rgh, Initial residual = 0.000153947, Final residual = 8.58875e-07, No Iterations 6
diagonal:  Solving for rho, Initial residual = 0, Final residual = 0, No Iterations 0
time step continuity errors : sum local = 1.32156e-09, global = 6.89091e-10, cumulative = 2.05525e-07
DILUPBiCGStab:  Solving for k, Initial residual = 0.0364091, Final residual = 3.98678e-09, No Iterations 1
ExecutionTime = 26.27 s  ClockTime = 27 s

Courant Number mean: 0.000185355 max: 0.566258
deltaT = 0.1
Time = 2.3

diagonal:  Solving for rho, Initial residual = 0, Final residual = 0, No Iterations 0
PIMPLE: iteration 1
DILUPBiCGStab:  Solving for Ux, Initial residual = 0.0547016, Final residual = 3.42618e-07, No Iterations 1
DILUPBiCGStab:  Solving for Uz, Initial residual = 0.0541393, Final residual = 3.27102e-07, No Iterations 1
DILUPBiCGStab:  Solving for O2, Initial residual = 0.00842586, Final residual = 6.64462e-05, No Iterations 1
DILUPBiCGStab:  Solving for H2O, Initial residual = 0.00867367, Final residual = 6.83953e-05, No Iterations 1
DILUPBiCGStab:  Solving for CH4, Initial residual = 0.00617898, Final residual = 5.03913e-05, No Iterations 1
DILUPBiCGStab:  Solving for CO2, Initial residual = 0.00867367, Final residual = 6.83953e-05, No Iterations 1
DILUPBiCGStab:  Solving for h, Initial residual = 0.00856848, Final residual = 3.89381e-07, No Iterations 1
min/max(T) = 300, 774.806
GAMG:  Solving for p_rgh, Initial residual = 0.00208102, Final residual = 0.000145181, No Iterations 2
diagonal:  Solving for rho, Initial residual = 0, Final residual = 0, No Iterations 0
time step continuity errors : sum local = 2.23586e-07, global = 2.76383e-08, cumulative = 2.33164e-07
GAMG:  Solving for p_rgh, Initial residual = 0.000171389, Final residual = 6.52952e-07, No Iterations 7
diagonal:  Solving for rho, Initial residual = 0, Final residual = 0, No Iterations 0
time step continuity errors : sum local = 1.00644e-09, global = 5.5509e-10, cumulative = 2.33719e-07
DILUPBiCGStab:  Solving for k, Initial residual = 0.0348854, Final residual = 5.09464e-09, No Iterations 1
ExecutionTime = 27.09 s  ClockTime = 28 s

Courant Number mean: 0.000206599 max: 0.599337
deltaT = 0.1
Time = 2.4

diagonal:  Solving for rho, Initial residual = 0, Final residual = 0, No Iterations 0
PIMPLE: iteration 1
DILUPBiCGStab:  Solving for Ux, Initial residual = 0.0544654, Final residual = 4.47521e-07, No Iterations 1
DILUPBiCGStab:  Solving for Uz, Initial residual = 0.0532731, Final residual = 4.38669e-07, No Iterations 1
DILUPBiCGStab:  Solving for O2, Initial residual = 0.00839619, Final residual = 7.83343e-05, No Iterations 1
DILUPBiCGStab:  Solving for H2O, Initial residual = 0.00860301, Final residual = 7.99929e-05, No Iterations 1
DILUPBiCGStab:  Solving for CH4, Initial residual = 0.00617281, Final residual = 5.97149e-05, No Iterations 1
DILUPBiCGStab:  Solving for CO2, Initial residual = 0.00860301, Final residual = 7.99929e-05, No Iterations 1
DILUPBiCGStab:  Solving for h, Initial residual = 0.00842702, Final residual = 5.38105e-07, No Iterations 1
min/max(T) = 300, 796.535
GAMG:  Solving for p_rgh, Initial residual = 0.00244095, Final residual = 0.00015185, No Iterations 2
diagonal:  Solving for rho, Initial residual = 0, Final residual = 0, No Iterations 0
time step continuity errors : sum local = 2.34296e-07, global = -1.18981e-09, cumulative = 2.32529e-07
GAMG:  Solving for p_rgh, Initial residual = 0.000180938, Final residual = 3.6973e-07, No Iterations 7
diagonal:  Solving for rho, Initial residual = 0, Final residual = 0, No Iterations 0
time step continuity errors : sum local = 5.70994e-10, global = -7.09017e-12, cumulative = 2.32522e-07
DILUPBiCGStab:  Solving for k, Initial residual = 0.0334998, Final residual = 7.31543e-09, No Iterations 1
ExecutionTime = 27.88 s  ClockTime = 29 s

Courant Number mean: 0.000227405 max: 0.631935
deltaT = 0.1
Time = 2.5

diagonal:  Solving for rho, Initial residual = 0, Final residual = 0, No Iterations 0
PIMPLE: iteration 1
DILUPBiCGStab:  Solving for Ux, Initial residual = 0.0509926, Final residual = 5.12208e-07, No Iterations 1
DILUPBiCGStab:  Solving for Uz, Initial residual = 0.0498525, Final residual = 5.03565e-07, No Iterations 1
DILUPBiCGStab:  Solving for O2, Initial residual = 0.00831175, Final residual = 8.33881e-05, No Iterations 1
DILUPBiCGStab:  Solving for H2O, Initial residual = 0.00847341, Final residual = 8.49239e-05, No Iterations 1
DILUPBiCGStab:  Solving for CH4, Initial residual = 0.00633763, Final residual = 6.12646e-05, No Iterations 1
DILUPBiCGStab:  Solving for CO2, Initial residual = 0.00847341, Final residual = 8.49239e-05, No Iterations 1
DILUPBiCGStab:  Solving for h, Initial residual = 0.00824729, Final residual = 6.29353e-07, No Iterations 1
min/max(T) = 300, 809.827
GAMG:  Solving for p_rgh, Initial residual = 0.00279321, Final residual = 0.000151333, No Iterations 2
diagonal:  Solving for rho, Initial residual = 0, Final residual = 0, No Iterations 0
time step continuity errors : sum local = 2.34119e-07, global = -8.50933e-09, cumulative = 2.24013e-07
GAMG:  Solving for p_rgh, Initial residual = 0.000188231, Final residual = 5.23905e-07, No Iterations 7
diagonal:  Solving for rho, Initial residual = 0, Final residual = 0, No Iterations 0
time step continuity errors : sum local = 8.11824e-10, global = -4.02957e-10, cumulative = 2.2361e-07
DILUPBiCGStab:  Solving for k, Initial residual = 0.0322355, Final residual = 7.65657e-09, No Iterations 1
ExecutionTime = 28.68 s  ClockTime = 30 s

Courant Number mean: 0.000248026 max: 0.661963
deltaT = 0.0714286
Time = 2.57143

diagonal:  Solving for rho, Initial residual = 0, Final residual = 0, No Iterations 0
PIMPLE: iteration 1
DILUPBiCGStab:  Solving for Ux, Initial residual = 0.0347938, Final residual = 1.0943e-07, No Iterations 1
DILUPBiCGStab:  Solving for Uz, Initial residual = 0.0337433, Final residual = 1.11277e-07, No Iterations 1
DILUPBiCGStab:  Solving for O2, Initial residual = 0.0058678, Final residual = 3.15487e-05, No Iterations 1
DILUPBiCGStab:  Solving for H2O, Initial residual = 0.00597634, Final residual = 3.21497e-05, No Iterations 1
DILUPBiCGStab:  Solving for CH4, Initial residual = 0.00451535, Final residual = 2.24634e-05, No Iterations 1
DILUPBiCGStab:  Solving for CO2, Initial residual = 0.00597634, Final residual = 3.21497e-05, No Iterations 1
DILUPBiCGStab:  Solving for h, Initial residual = 0.00581111, Final residual = 1.3624e-07, No Iterations 1
min/max(T) = 300, 825.074
GAMG:  Solving for p_rgh, Initial residual = 0.00456827, Final residual = 0.000441724, No Iterations 2
diagonal:  Solving for rho, Initial residual = 0, Final residual = 0, No Iterations 0
time step continuity errors : sum local = 3.50529e-07, global = 6.13917e-08, cumulative = 2.85001e-07
GAMG:  Solving for p_rgh, Initial residual = 0.000463665, Final residual = 8.89711e-07, No Iterations 9
diagonal:  Solving for rho, Initial residual = 0, Final residual = 0, No Iterations 0
time step continuity errors : sum local = 7.07627e-10, global = 1.79041e-10, cumulative = 2.8518e-07
DILUPBiCGStab:  Solving for k, Initial residual = 0.0221135, Final residual = 5.70386e-07, No Iterations 1
ExecutionTime = 29.51 s  ClockTime = 30 s

Courant Number mean: 0.000188886 max: 0.439088
deltaT = 0.107143
Time = 2.67857

diagonal:  Solving for rho, Initial residual = 0, Final residual = 0, No Iterations 0
PIMPLE: iteration 1
DILUPBiCGStab:  Solving for Ux, Initial residual = 0.0641533, Final residual = 8.40199e-07, No Iterations 1
DILUPBiCGStab:  Solving for Uz, Initial residual = 0.0622254, Final residual = 5.75605e-07, No Iterations 1
DILUPBiCGStab:  Solving for O2, Initial residual = 0.00810295, Final residual = 8.69882e-05, No Iterations 1
DILUPBiCGStab:  Solving for H2O, Initial residual = 0.00825841, Final residual = 8.87201e-05, No Iterations 1
DILUPBiCGStab:  Solving for CH4, Initial residual = 0.00574198, Final residual = 5.65451e-05, No Iterations 1
DILUPBiCGStab:  Solving for CO2, Initial residual = 0.00825841, Final residual = 8.87201e-05, No Iterations 1
DILUPBiCGStab:  Solving for h, Initial residual = 0.00802651, Final residual = 7.69728e-07, No Iterations 1
min/max(T) = 300, 852.99
GAMG:  Solving for p_rgh, Initial residual = 0.00553183, Final residual = 0.000436612, No Iterations 2
diagonal:  Solving for rho, Initial residual = 0, Final residual = 0, No Iterations 0
time step continuity errors : sum local = 7.80054e-07, global = -1.42465e-07, cumulative = 1.42715e-07
GAMG:  Solving for p_rgh, Initial residual = 0.000502183, Final residual = 4.77301e-07, No Iterations 14
diagonal:  Solving for rho, Initial residual = 0, Final residual = 0, No Iterations 0
time step continuity errors : sum local = 8.51782e-10, global = -2.9321e-10, cumulative = 1.42422e-07
DILUPBiCGStab:  Solving for k, Initial residual = 0.032491, Final residual = 1.29639e-08, No Iterations 1
ExecutionTime = 30.38 s  ClockTime = 31 s

Courant Number mean: 0.000311681 max: 0.774472
deltaT = 0.0642857
Time = 2.74286

diagonal:  Solving for rho, Initial residual = 0, Final residual = 0, No Iterations 0
PIMPLE: iteration 1
DILUPBiCGStab:  Solving for Ux, Initial residual = 0.0293498, Final residual = 8.00313e-08, No Iterations 1
DILUPBiCGStab:  Solving for Uz, Initial residual = 0.02759, Final residual = 7.6917e-08, No Iterations 1
DILUPBiCGStab:  Solving for O2, Initial residual = 0.00524578, Final residual = 2.22753e-05, No Iterations 1
DILUPBiCGStab:  Solving for H2O, Initial residual = 0.00531436, Final residual = 2.26122e-05, No Iterations 1
DILUPBiCGStab:  Solving for CH4, Initial residual = 0.0039756, Final residual = 1.7473e-05, No Iterations 1
DILUPBiCGStab:  Solving for CO2, Initial residual = 0.00531436, Final residual = 2.26122e-05, No Iterations 1
DILUPBiCGStab:  Solving for h, Initial residual = 0.00522631, Final residual = 8.4788e-08, No Iterations 1
min/max(T) = 300, 866.248
GAMG:  Solving for p_rgh, Initial residual = 0.00701026, Final residual = 0.00029834, No Iterations 3
diagonal:  Solving for rho, Initial residual = 0, Final residual = 0, No Iterations 0
time step continuity errors : sum local = 1.93031e-07, global = 2.81358e-08, cumulative = 1.70558e-07
GAMG:  Solving for p_rgh, Initial residual = 0.000354178, Final residual = 5.08895e-07, No Iterations 11
diagonal:  Solving for rho, Initial residual = 0, Final residual = 0, No Iterations 0
time step continuity errors : sum local = 3.2986e-10, global = 9.94612e-11, cumulative = 1.70657e-07
DILUPBiCGStab:  Solving for k, Initial residual = 0.0187022, Final residual = 3.38273e-07, No Iterations 1
ExecutionTime = 31.22 s  ClockTime = 32 s

Courant Number mean: 0.000193068 max: 0.3947
deltaT = 0.0857143
Time = 2.82857

diagonal:  Solving for rho, Initial residual = 0, Final residual = 0, No Iterations 0
PIMPLE: iteration 1
DILUPBiCGStab:  Solving for Ux, Initial residual = 0.0505451, Final residual = 2.83187e-07, No Iterations 1
DILUPBiCGStab:  Solving for Uz, Initial residual = 0.0473103, Final residual = 1.9503e-07, No Iterations 1
DILUPBiCGStab:  Solving for O2, Initial residual = 0.00608951, Final residual = 4.30501e-05, No Iterations 1
DILUPBiCGStab:  Solving for H2O, Initial residual = 0.00620301, Final residual = 4.3832e-05, No Iterations 1
DILUPBiCGStab:  Solving for CH4, Initial residual = 0.00419409, Final residual = 2.96012e-05, No Iterations 1
DILUPBiCGStab:  Solving for CO2, Initial residual = 0.00620301, Final residual = 4.3832e-05, No Iterations 1
DILUPBiCGStab:  Solving for h, Initial residual = 0.00611278, Final residual = 2.66743e-07, No Iterations 1
min/max(T) = 300, 890.604
GAMG:  Solving for p_rgh, Initial residual = 0.00570963, Final residual = 0.000440568, No Iterations 2
diagonal:  Solving for rho, Initial residual = 0, Final residual = 0, No Iterations 0
time step continuity errors : sum local = 5.08353e-07, global = -1.09558e-07, cumulative = 6.10992e-08
GAMG:  Solving for p_rgh, Initial residual = 0.000502514, Final residual = 8.92751e-07, No Iterations 13
diagonal:  Solving for rho, Initial residual = 0, Final residual = 0, No Iterations 0
time step continuity errors : sum local = 1.03071e-09, global = 1.46901e-10, cumulative = 6.12461e-08
DILUPBiCGStab:  Solving for k, Initial residual = 0.024481, Final residual = 3.95169e-09, No Iterations 1
ExecutionTime = 32.1 s  ClockTime = 33 s

Courant Number mean: 0.000271988 max: 0.595679
deltaT = 0.0857143
Time = 2.91429

diagonal:  Solving for rho, Initial residual = 0, Final residual = 0, No Iterations 0
PIMPLE: iteration 1
DILUPBiCGStab:  Solving for Ux, Initial residual = 0.0373566, Final residual = 3.97382e-07, No Iterations 1
DILUPBiCGStab:  Solving for Uz, Initial residual = 0.0340787, Final residual = 3.07993e-07, No Iterations 1
DILUPBiCGStab:  Solving for O2, Initial residual = 0.00624467, Final residual = 4.70381e-05, No Iterations 1
DILUPBiCGStab:  Solving for H2O, Initial residual = 0.00631672, Final residual = 4.77822e-05, No Iterations 1
DILUPBiCGStab:  Solving for CH4, Initial residual = 0.00477988, Final residual = 3.51885e-05, No Iterations 1
DILUPBiCGStab:  Solving for CO2, Initial residual = 0.00631672, Final residual = 4.77822e-05, No Iterations 1
DILUPBiCGStab:  Solving for h, Initial residual = 0.00626482, Final residual = 3.12374e-07, No Iterations 1
min/max(T) = 300, 910.75
GAMG:  Solving for p_rgh, Initial residual = 0.00462443, Final residual = 0.000308087, No Iterations 2
diagonal:  Solving for rho, Initial residual = 0, Final residual = 0, No Iterations 0
time step continuity errors : sum local = 3.56556e-07, global = 4.68415e-08, cumulative = 1.08088e-07
GAMG:  Solving for p_rgh, Initial residual = 0.000372406, Final residual = 4.78064e-07, No Iterations 11
diagonal:  Solving for rho, Initial residual = 0, Final residual = 0, No Iterations 0
time step continuity errors : sum local = 5.53099e-10, global = 1.73317e-10, cumulative = 1.08261e-07
DILUPBiCGStab:  Solving for k, Initial residual = 0.0238278, Final residual = 9.72952e-07, No Iterations 1
ExecutionTime = 32.96 s  ClockTime = 33 s

Courant Number mean: 0.000288748 max: 0.587612
deltaT = 0.0857143
Time = 3

diagonal:  Solving for rho, Initial residual = 0, Final residual = 0, No Iterations 0
PIMPLE: iteration 1
DILUPBiCGStab:  Solving for Ux, Initial residual = 0.0394488, Final residual = 3.79367e-07, No Iterations 1
DILUPBiCGStab:  Solving for Uz, Initial residual = 0.03565, Final residual = 2.79486e-07, No Iterations 1
DILUPBiCGStab:  Solving for O2, Initial residual = 0.0059884, Final residual = 4.53637e-05, No Iterations 1
DILUPBiCGStab:  Solving for H2O, Initial residual = 0.0060561, Final residual = 4.60305e-05, No Iterations 1
DILUPBiCGStab:  Solving for CH4, Initial residual = 0.00455518, Final residual = 3.26915e-05, No Iterations 1
DILUPBiCGStab:  Solving for CO2, Initial residual = 0.0060561, Final residual = 4.60305e-05, No Iterations 1
Radiation solver iter: 0
GAMG:  Solving for ILambda_0_0, Initial residual = 0.546268, Final residual = 0.0339506, No Iterations 1
GAMG:  Solving for ILambda_1_0, Initial residual = 0.554825, Final residual = 0.0276258, No Iterations 1
GAMG:  Solving for ILambda_2_0, Initial residual = 0.560475, Final residual = 2.98872e-08, No Iterations 1
GAMG:  Solving for ILambda_3_0, Initial residual = 0.559487, Final residual = 4.80735e-08, No Iterations 1
GAMG:  Solving for ILambda_4_0, Initial residual = 0.547419, Final residual = 0.037163, No Iterations 1
GAMG:  Solving for ILambda_5_0, Initial residual = 0.555339, Final residual = 0.0361649, No Iterations 1
GAMG:  Solving for ILambda_6_0, Initial residual = 0.559686, Final residual = 0.00360354, No Iterations 1
GAMG:  Solving for ILambda_7_0, Initial residual = 0.559055, Final residual = 0.000149994, No Iterations 1
DILUPBiCGStab:  Solving for h, Initial residual = 0.00624364, Final residual = 2.75003e-07, No Iterations 1
min/max(T) = 300, 926.632
GAMG:  Solving for p_rgh, Initial residual = 0.00556642, Final residual = 0.000421628, No Iterations 2
diagonal:  Solving for rho, Initial residual = 0, Final residual = 0, No Iterations 0
time step continuity errors : sum local = 4.89327e-07, global = 1.58339e-07, cumulative = 2.666e-07
GAMG:  Solving for p_rgh, Initial residual = 0.000492391, Final residual = 6.36918e-07, No Iterations 12
diagonal:  Solving for rho, Initial residual = 0, Final residual = 0, No Iterations 0
time step continuity errors : sum local = 7.41226e-10, global = 1.91702e-10, cumulative = 2.66791e-07
DILUPBiCGStab:  Solving for k, Initial residual = 0.0232182, Final residual = 4.64158e-09, No Iterations 1
ExecutionTime = 34.05 s  ClockTime = 34 s

Courant Number mean: 0.000320514 max: 0.617978
deltaT = 0.0833333
Time = 3.08333

diagonal:  Solving for rho, Initial residual = 0, Final residual = 0, No Iterations 0
PIMPLE: iteration 1
DILUPBiCGStab:  Solving for Ux, Initial residual = 0.0489842, Final residual = 4.49888e-07, No Iterations 1
DILUPBiCGStab:  Solving for Uz, Initial residual = 0.0453529, Final residual = 3.38555e-07, No Iterations 1
DILUPBiCGStab:  Solving for O2, Initial residual = 0.00587334, Final residual = 4.3061e-05, No Iterations 1
DILUPBiCGStab:  Solving for H2O, Initial residual = 0.00593278, Final residual = 4.36222e-05, No Iterations 1
DILUPBiCGStab:  Solving for CH4, Initial residual = 0.00436215, Final residual = 3.25715e-05, No Iterations 1
DILUPBiCGStab:  Solving for CO2, Initial residual = 0.00593278, Final residual = 4.36222e-05, No Iterations 1
DILUPBiCGStab:  Solving for h, Initial residual = 0.00583284, Final residual = 2.46537e-07, No Iterations 1
min/max(T) = 300, 943.475
GAMG:  Solving for p_rgh, Initial residual = 0.0062819, Final residual = 0.000378024, No Iterations 2
diagonal:  Solving for rho, Initial residual = 0, Final residual = 0, No Iterations 0
time step continuity errors : sum local = 4.17746e-07, global = -1.17635e-07, cumulative = 1.49156e-07
GAMG:  Solving for p_rgh, Initial residual = 0.000467388, Final residual = 7.41668e-07, No Iterations 12
diagonal:  Solving for rho, Initial residual = 0, Final residual = 0, No Iterations 0
time step continuity errors : sum local = 8.16372e-10, global = -2.09602e-10, cumulative = 1.48947e-07
DILUPBiCGStab:  Solving for k, Initial residual = 0.0220083, Final residual = 9.70715e-07, No Iterations 1
ExecutionTime = 34.89 s  ClockTime = 35 s

[...]
DILUPBiCGStab:  Solving for k, Initial residual = 0.00148233, Final residual = 8.68076e-09, No Iterations 1
ExecutionTime = 944.28 s  ClockTime = 946 s

Courant Number mean: 0.00386875 max: 0.583773
deltaT = 0.047619
Time = 59.5238

diagonal:  Solving for rho, Initial residual = 0, Final residual = 0, No Iterations 0
PIMPLE: iteration 1
DILUPBiCGStab:  Solving for Ux, Initial residual = 0.00468592, Final residual = 3.09133e-08, No Iterations 1
DILUPBiCGStab:  Solving for Uz, Initial residual = 0.0106015, Final residual = 4.55395e-08, No Iterations 1
DILUPBiCGStab:  Solving for O2, Initial residual = 0.000809575, Final residual = 2.41285e-06, No Iterations 1
DILUPBiCGStab:  Solving for H2O, Initial residual = 0.000809932, Final residual = 2.41192e-06, No Iterations 1
DILUPBiCGStab:  Solving for CH4, Initial residual = 0.000571655, Final residual = 3.01145e-06, No Iterations 1
DILUPBiCGStab:  Solving for CO2, Initial residual = 0.000809932, Final residual = 2.41192e-06, No Iterations 1
DILUPBiCGStab:  Solving for h, Initial residual = 0.000584859, Final residual = 7.22613e-09, No Iterations 1
min/max(T) = 299.989, 1122.25
GAMG:  Solving for p_rgh, Initial residual = 0.0225726, Final residual = 0.00171471, No Iterations 1
diagonal:  Solving for rho, Initial residual = 0, Final residual = 0, No Iterations 0
time step continuity errors : sum local = 3.18357e-05, global = -1.92003e-07, cumulative = -0.0003078
GAMG:  Solving for p_rgh, Initial residual = 0.00178606, Final residual = 6.58148e-07, No Iterations 7
diagonal:  Solving for rho, Initial residual = 0, Final residual = 0, No Iterations 0
time step continuity errors : sum local = 1.2206e-08, global = -9.51829e-10, cumulative = -0.000307801
DILUPBiCGStab:  Solving for k, Initial residual = 0.00147785, Final residual = 8.65903e-09, No Iterations 1
ExecutionTime = 945.06 s  ClockTime = 946 s

Courant Number mean: 0.003869 max: 0.585456
deltaT = 0.047619
Time = 59.5714

diagonal:  Solving for rho, Initial residual = 0, Final residual = 0, No Iterations 0
PIMPLE: iteration 1
DILUPBiCGStab:  Solving for Ux, Initial residual = 0.00476858, Final residual = 3.13456e-08, No Iterations 1
DILUPBiCGStab:  Solving for Uz, Initial residual = 0.0107535, Final residual = 4.60378e-08, No Iterations 1
DILUPBiCGStab:  Solving for O2, Initial residual = 0.000812005, Final residual = 2.46192e-06, No Iterations 1
DILUPBiCGStab:  Solving for H2O, Initial residual = 0.00081236, Final residual = 2.46104e-06, No Iterations 1
DILUPBiCGStab:  Solving for CH4, Initial residual = 0.000568513, Final residual = 3.00672e-06, No Iterations 1
DILUPBiCGStab:  Solving for CO2, Initial residual = 0.00081236, Final residual = 2.46104e-06, No Iterations 1
DILUPBiCGStab:  Solving for h, Initial residual = 0.000582562, Final residual = 7.08072e-09, No Iterations 1
min/max(T) = 299.989, 1121.81
GAMG:  Solving for p_rgh, Initial residual = 0.0226593, Final residual = 0.00173376, No Iterations 1
diagonal:  Solving for rho, Initial residual = 0, Final residual = 0, No Iterations 0
time step continuity errors : sum local = 3.21091e-05, global = -5.30652e-07, cumulative = -0.000308332
GAMG:  Solving for p_rgh, Initial residual = 0.00180534, Final residual = 8.3609e-07, No Iterations 7
diagonal:  Solving for rho, Initial residual = 0, Final residual = 0, No Iterations 0
time step continuity errors : sum local = 1.54706e-08, global = 4.23897e-09, cumulative = -0.000308328
DILUPBiCGStab:  Solving for k, Initial residual = 0.00148512, Final residual = 8.73221e-09, No Iterations 1
ExecutionTime = 945.87 s  ClockTime = 947 s

Courant Number mean: 0.00387367 max: 0.58517
deltaT = 0.047619
Time = 59.619

diagonal:  Solving for rho, Initial residual = 0, Final residual = 0, No Iterations 0
PIMPLE: iteration 1
DILUPBiCGStab:  Solving for Ux, Initial residual = 0.00477211, Final residual = 3.12466e-08, No Iterations 1
DILUPBiCGStab:  Solving for Uz, Initial residual = 0.0106961, Final residual = 4.53778e-08, No Iterations 1
DILUPBiCGStab:  Solving for O2, Initial residual = 0.000813519, Final residual = 2.44322e-06, No Iterations 1
DILUPBiCGStab:  Solving for H2O, Initial residual = 0.000813866, Final residual = 2.44236e-06, No Iterations 1
DILUPBiCGStab:  Solving for CH4, Initial residual = 0.00056848, Final residual = 3.00924e-06, No Iterations 1
DILUPBiCGStab:  Solving for CO2, Initial residual = 0.000813866, Final residual = 2.44236e-06, No Iterations 1
Radiation solver iter: 0
GAMG:  Solving for ILambda_0_0, Initial residual = 0.050838, Final residual = 0.00243592, No Iterations 1
GAMG:  Solving for ILambda_1_0, Initial residual = 0.0520308, Final residual = 0.00148957, No Iterations 1
GAMG:  Solving for ILambda_2_0, Initial residual = 0.0513308, Final residual = 6.24506e-07, No Iterations 1
GAMG:  Solving for ILambda_3_0, Initial residual = 0.049632, Final residual = 9.85053e-07, No Iterations 1
GAMG:  Solving for ILambda_4_0, Initial residual = 0.0508441, Final residual = 0.00238826, No Iterations 1
GAMG:  Solving for ILambda_5_0, Initial residual = 0.0524571, Final residual = 0.00156806, No Iterations 1
GAMG:  Solving for ILambda_6_0, Initial residual = 0.051602, Final residual = 0.000103779, No Iterations 1
GAMG:  Solving for ILambda_7_0, Initial residual = 0.049362, Final residual = 1.88971e-05, No Iterations 1
DILUPBiCGStab:  Solving for h, Initial residual = 0.000632047, Final residual = 9.5723e-09, No Iterations 1
min/max(T) = 299.989, 1127.4
GAMG:  Solving for p_rgh, Initial residual = 0.0227035, Final residual = 0.00172118, No Iterations 1
diagonal:  Solving for rho, Initial residual = 0, Final residual = 0, No Iterations 0
time step continuity errors : sum local = 3.19411e-05, global = -6.76959e-07, cumulative = -0.000309005
GAMG:  Solving for p_rgh, Initial residual = 0.00178758, Final residual = 8.99117e-07, No Iterations 7
diagonal:  Solving for rho, Initial residual = 0, Final residual = 0, No Iterations 0
time step continuity errors : sum local = 1.66919e-08, global = 3.54981e-09, cumulative = -0.000309001
DILUPBiCGStab:  Solving for k, Initial residual = 0.0014781, Final residual = 8.71556e-09, No Iterations 1
ExecutionTime = 946.86 s  ClockTime = 948 s

Courant Number mean: 0.00387593 max: 0.584917
deltaT = 0.047619
Time = 59.6667

diagonal:  Solving for rho, Initial residual = 0, Final residual = 0, No Iterations 0
PIMPLE: iteration 1
DILUPBiCGStab:  Solving for Ux, Initial residual = 0.0047915, Final residual = 3.70903e-08, No Iterations 1
DILUPBiCGStab:  Solving for Uz, Initial residual = 0.0108975, Final residual = 5.19565e-08, No Iterations 1
DILUPBiCGStab:  Solving for O2, Initial residual = 0.000815139, Final residual = 2.49515e-06, No Iterations 1
DILUPBiCGStab:  Solving for H2O, Initial residual = 0.000815501, Final residual = 2.49458e-06, No Iterations 1
DILUPBiCGStab:  Solving for CH4, Initial residual = 0.000559724, Final residual = 2.90249e-06, No Iterations 1
DILUPBiCGStab:  Solving for CO2, Initial residual = 0.000815501, Final residual = 2.49458e-06, No Iterations 1
DILUPBiCGStab:  Solving for h, Initial residual = 0.00062541, Final residual = 9.32523e-09, No Iterations 1
min/max(T) = 299.989, 1130.68
GAMG:  Solving for p_rgh, Initial residual = 0.0226889, Final residual = 0.00173485, No Iterations 1
diagonal:  Solving for rho, Initial residual = 0, Final residual = 0, No Iterations 0
time step continuity errors : sum local = 3.23323e-05, global = -1.55555e-07, cumulative = -0.000309157
GAMG:  Solving for p_rgh, Initial residual = 0.00180353, Final residual = 6.44907e-07, No Iterations 7
diagonal:  Solving for rho, Initial residual = 0, Final residual = 0, No Iterations 0
time step continuity errors : sum local = 1.20036e-08, global = 2.58382e-09, cumulative = -0.000309154
DILUPBiCGStab:  Solving for k, Initial residual = 0.00148996, Final residual = 8.62231e-09, No Iterations 1
ExecutionTime = 947.63 s  ClockTime = 949 s

Courant Number mean: 0.00387971 max: 0.58518
deltaT = 0.047619
Time = 59.7143

diagonal:  Solving for rho, Initial residual = 0, Final residual = 0, No Iterations 0
PIMPLE: iteration 1
DILUPBiCGStab:  Solving for Ux, Initial residual = 0.00485619, Final residual = 3.36218e-08, No Iterations 1
DILUPBiCGStab:  Solving for Uz, Initial residual = 0.0111264, Final residual = 4.83235e-08, No Iterations 1
DILUPBiCGStab:  Solving for O2, Initial residual = 0.000815519, Final residual = 2.43943e-06, No Iterations 1
DILUPBiCGStab:  Solving for H2O, Initial residual = 0.000815894, Final residual = 2.43888e-06, No Iterations 1
DILUPBiCGStab:  Solving for CH4, Initial residual = 0.00055594, Final residual = 2.87051e-06, No Iterations 1
DILUPBiCGStab:  Solving for CO2, Initial residual = 0.000815894, Final residual = 2.43888e-06, No Iterations 1
DILUPBiCGStab:  Solving for h, Initial residual = 0.000618752, Final residual = 8.53644e-09, No Iterations 1
min/max(T) = 299.989, 1132.18
GAMG:  Solving for p_rgh, Initial residual = 0.0227766, Final residual = 0.00174552, No Iterations 1
diagonal:  Solving for rho, Initial residual = 0, Final residual = 0, No Iterations 0
time step continuity errors : sum local = 3.24721e-05, global = -5.66626e-07, cumulative = -0.000309721
GAMG:  Solving for p_rgh, Initial residual = 0.00181529, Final residual = 8.51689e-07, No Iterations 7
diagonal:  Solving for rho, Initial residual = 0, Final residual = 0, No Iterations 0
time step continuity errors : sum local = 1.5832e-08, global = 3.15536e-09, cumulative = -0.000309718
DILUPBiCGStab:  Solving for k, Initial residual = 0.00148611, Final residual = 8.68727e-09, No Iterations 1
ExecutionTime = 948.42 s  ClockTime = 949 s

Courant Number mean: 0.0038842 max: 0.585372
deltaT = 0.047619
Time = 59.7619

diagonal:  Solving for rho, Initial residual = 0, Final residual = 0, No Iterations 0
PIMPLE: iteration 1
DILUPBiCGStab:  Solving for Ux, Initial residual = 0.00477551, Final residual = 3.33613e-08, No Iterations 1
DILUPBiCGStab:  Solving for Uz, Initial residual = 0.0108071, Final residual = 4.61505e-08, No Iterations 1
DILUPBiCGStab:  Solving for O2, Initial residual = 0.000817371, Final residual = 2.44524e-06, No Iterations 1
DILUPBiCGStab:  Solving for H2O, Initial residual = 0.000817744, Final residual = 2.44478e-06, No Iterations 1
DILUPBiCGStab:  Solving for CH4, Initial residual = 0.000560341, Final residual = 2.88958e-06, No Iterations 1
DILUPBiCGStab:  Solving for CO2, Initial residual = 0.000817744, Final residual = 2.44478e-06, No Iterations 1
DILUPBiCGStab:  Solving for h, Initial residual = 0.000613096, Final residual = 8.33252e-09, No Iterations 1
min/max(T) = 299.989, 1132.32
GAMG:  Solving for p_rgh, Initial residual = 0.0226912, Final residual = 0.00172631, No Iterations 1
diagonal:  Solving for rho, Initial residual = 0, Final residual = 0, No Iterations 0
time step continuity errors : sum local = 3.21855e-05, global = -6.27596e-07, cumulative = -0.000310345
GAMG:  Solving for p_rgh, Initial residual = 0.00179237, Final residual = 7.51761e-07, No Iterations 6
diagonal:  Solving for rho, Initial residual = 0, Final residual = 0, No Iterations 0
time step continuity errors : sum local = 1.40262e-08, global = -3.43671e-09, cumulative = -0.000310349
DILUPBiCGStab:  Solving for k, Initial residual = 0.00149647, Final residual = 8.4936e-09, No Iterations 1
ExecutionTime = 949.21 s  ClockTime = 950 s

Courant Number mean: 0.00388808 max: 0.581449
deltaT = 0.047619
Time = 59.8095

diagonal:  Solving for rho, Initial residual = 0, Final residual = 0, No Iterations 0
PIMPLE: iteration 1
DILUPBiCGStab:  Solving for Ux, Initial residual = 0.00469783, Final residual = 3.19213e-08, No Iterations 1
DILUPBiCGStab:  Solving for Uz, Initial residual = 0.0107135, Final residual = 4.60173e-08, No Iterations 1
DILUPBiCGStab:  Solving for O2, Initial residual = 0.000817054, Final residual = 2.46971e-06, No Iterations 1
DILUPBiCGStab:  Solving for H2O, Initial residual = 0.000817421, Final residual = 2.46921e-06, No Iterations 1
DILUPBiCGStab:  Solving for CH4, Initial residual = 0.000561495, Final residual = 2.90111e-06, No Iterations 1
DILUPBiCGStab:  Solving for CO2, Initial residual = 0.000817421, Final residual = 2.46921e-06, No Iterations 1
DILUPBiCGStab:  Solving for h, Initial residual = 0.000607457, Final residual = 8.058e-09, No Iterations 1
min/max(T) = 299.989, 1131.76
GAMG:  Solving for p_rgh, Initial residual = 0.0225971, Final residual = 0.00173199, No Iterations 1
diagonal:  Solving for rho, Initial residual = 0, Final residual = 0, No Iterations 0
time step continuity errors : sum local = 3.23949e-05, global = -2.13339e-07, cumulative = -0.000310562
GAMG:  Solving for p_rgh, Initial residual = 0.00180533, Final residual = 5.45507e-07, No Iterations 7
diagonal:  Solving for rho, Initial residual = 0, Final residual = 0, No Iterations 0
time step continuity errors : sum local = 1.01801e-08, global = 2.6592e-09, cumulative = -0.000310559
DILUPBiCGStab:  Solving for k, Initial residual = 0.0014881, Final residual = 8.62735e-09, No Iterations 1
ExecutionTime = 950.01 s  ClockTime = 951 s

Courant Number mean: 0.00389 max: 0.583114
deltaT = 0.047619
Time = 59.8571

diagonal:  Solving for rho, Initial residual = 0, Final residual = 0, No Iterations 0
PIMPLE: iteration 1
DILUPBiCGStab:  Solving for Ux, Initial residual = 0.00478342, Final residual = 3.19936e-08, No Iterations 1
DILUPBiCGStab:  Solving for Uz, Initial residual = 0.0109325, Final residual = 4.68108e-08, No Iterations 1
DILUPBiCGStab:  Solving for O2, Initial residual = 0.000816824, Final residual = 2.50582e-06, No Iterations 1
DILUPBiCGStab:  Solving for H2O, Initial residual = 0.000817193, Final residual = 2.50538e-06, No Iterations 1
DILUPBiCGStab:  Solving for CH4, Initial residual = 0.000561894, Final residual = 2.85176e-06, No Iterations 1
DILUPBiCGStab:  Solving for CO2, Initial residual = 0.000817193, Final residual = 2.50538e-06, No Iterations 1
DILUPBiCGStab:  Solving for h, Initial residual = 0.000602881, Final residual = 7.94865e-09, No Iterations 1
min/max(T) = 299.989, 1130.3
GAMG:  Solving for p_rgh, Initial residual = 0.0227219, Final residual = 0.00175062, No Iterations 1
diagonal:  Solving for rho, Initial residual = 0, Final residual = 0, No Iterations 0
time step continuity errors : sum local = 3.26567e-05, global = -5.08782e-07, cumulative = -0.000311068
GAMG:  Solving for p_rgh, Initial residual = 0.00182301, Final residual = 7.71026e-07, No Iterations 7
diagonal:  Solving for rho, Initial residual = 0, Final residual = 0, No Iterations 0
time step continuity errors : sum local = 1.43708e-08, global = 1.00914e-09, cumulative = -0.000311067
DILUPBiCGStab:  Solving for k, Initial residual = 0.00148684, Final residual = 8.56468e-09, No Iterations 1
ExecutionTime = 950.83 s  ClockTime = 952 s

Courant Number mean: 0.00389385 max: 0.59254
deltaT = 0.047619
Time = 59.9048

diagonal:  Solving for rho, Initial residual = 0, Final residual = 0, No Iterations 0
PIMPLE: iteration 1
DILUPBiCGStab:  Solving for Ux, Initial residual = 0.00479333, Final residual = 3.18205e-08, No Iterations 1
DILUPBiCGStab:  Solving for Uz, Initial residual = 0.0109335, Final residual = 4.44705e-08, No Iterations 1
DILUPBiCGStab:  Solving for O2, Initial residual = 0.000816658, Final residual = 2.5178e-06, No Iterations 1
DILUPBiCGStab:  Solving for H2O, Initial residual = 0.000817025, Final residual = 2.5173e-06, No Iterations 1
DILUPBiCGStab:  Solving for CH4, Initial residual = 0.000568707, Final residual = 2.84275e-06, No Iterations 1
DILUPBiCGStab:  Solving for CO2, Initial residual = 0.000817025, Final residual = 2.5173e-06, No Iterations 1
DILUPBiCGStab:  Solving for h, Initial residual = 0.000597896, Final residual = 8.12081e-09, No Iterations 1
min/max(T) = 299.989, 1128.29
GAMG:  Solving for p_rgh, Initial residual = 0.0226758, Final residual = 0.00172844, No Iterations 1
diagonal:  Solving for rho, Initial residual = 0, Final residual = 0, No Iterations 0
time step continuity errors : sum local = 3.22891e-05, global = -5.56169e-07, cumulative = -0.000311623
GAMG:  Solving for p_rgh, Initial residual = 0.0017953, Final residual = 5.17554e-07, No Iterations 6
diagonal:  Solving for rho, Initial residual = 0, Final residual = 0, No Iterations 0
time step continuity errors : sum local = 9.66687e-09, global = -1.75218e-10, cumulative = -0.000311623
DILUPBiCGStab:  Solving for k, Initial residual = 0.0014726, Final residual = 8.52798e-09, No Iterations 1
ExecutionTime = 951.6 s  ClockTime = 952 s

Courant Number mean: 0.00389499 max: 0.594986
deltaT = 0.047619
Time = 59.9524

diagonal:  Solving for rho, Initial residual = 0, Final residual = 0, No Iterations 0
PIMPLE: iteration 1
DILUPBiCGStab:  Solving for Ux, Initial residual = 0.00474997, Final residual = 3.18318e-08, No Iterations 1
DILUPBiCGStab:  Solving for Uz, Initial residual = 0.0106819, Final residual = 4.2936e-08, No Iterations 1
DILUPBiCGStab:  Solving for O2, Initial residual = 0.00081586, Final residual = 2.52015e-06, No Iterations 1
DILUPBiCGStab:  Solving for H2O, Initial residual = 0.000816209, Final residual = 2.51959e-06, No Iterations 1
DILUPBiCGStab:  Solving for CH4, Initial residual = 0.000571721, Final residual = 2.81405e-06, No Iterations 1
DILUPBiCGStab:  Solving for CO2, Initial residual = 0.000816209, Final residual = 2.51959e-06, No Iterations 1
DILUPBiCGStab:  Solving for h, Initial residual = 0.000592979, Final residual = 8.07179e-09, No Iterations 1
min/max(T) = 299.989, 1126.39
GAMG:  Solving for p_rgh, Initial residual = 0.0225454, Final residual = 0.00171672, No Iterations 1
diagonal:  Solving for rho, Initial residual = 0, Final residual = 0, No Iterations 0
time step continuity errors : sum local = 3.21323e-05, global = -1.80146e-07, cumulative = -0.000311804
GAMG:  Solving for p_rgh, Initial residual = 0.00178556, Final residual = 5.30037e-07, No Iterations 7
diagonal:  Solving for rho, Initial residual = 0, Final residual = 0, No Iterations 0
time step continuity errors : sum local = 9.92117e-09, global = 3.77153e-09, cumulative = -0.0003118
DILUPBiCGStab:  Solving for k, Initial residual = 0.00149101, Final residual = 8.43012e-09, No Iterations 1
ExecutionTime = 952.41 s  ClockTime = 953 s

Courant Number mean: 0.00389723 max: 0.596068
deltaT = 0.047619
Time = 60

diagonal:  Solving for rho, Initial residual = 0, Final residual = 0, No Iterations 0
PIMPLE: iteration 1
DILUPBiCGStab:  Solving for Ux, Initial residual = 0.00475697, Final residual = 3.16058e-08, No Iterations 1
DILUPBiCGStab:  Solving for Uz, Initial residual = 0.0107276, Final residual = 4.19355e-08, No Iterations 1
DILUPBiCGStab:  Solving for O2, Initial residual = 0.000818565, Final residual = 2.51213e-06, No Iterations 1
DILUPBiCGStab:  Solving for H2O, Initial residual = 0.000818908, Final residual = 2.51155e-06, No Iterations 1
DILUPBiCGStab:  Solving for CH4, Initial residual = 0.00057401, Final residual = 2.76176e-06, No Iterations 1
DILUPBiCGStab:  Solving for CO2, Initial residual = 0.000818908, Final residual = 2.51155e-06, No Iterations 1
DILUPBiCGStab:  Solving for h, Initial residual = 0.000591384, Final residual = 7.95835e-09, No Iterations 1
min/max(T) = 299.989, 1125.5
GAMG:  Solving for p_rgh, Initial residual = 0.0225956, Final residual = 0.00172861, No Iterations 1
diagonal:  Solving for rho, Initial residual = 0, Final residual = 0, No Iterations 0
time step continuity errors : sum local = 3.2339e-05, global = -5.88248e-07, cumulative = -0.000312388
GAMG:  Solving for p_rgh, Initial residual = 0.0018013, Final residual = 6.66072e-07, No Iterations 6
diagonal:  Solving for rho, Initial residual = 0, Final residual = 0, No Iterations 0
time step continuity errors : sum local = 1.24387e-08, global = -3.50667e-09, cumulative = -0.000312392
DILUPBiCGStab:  Solving for k, Initial residual = 0.00149673, Final residual = 8.39781e-09, No Iterations 1
ExecutionTime = 953.23 s  ClockTime = 954 s

End

Finalising parallel run
